<?xml version="1.0" encoding="UTF-8"?>

<!-- generated on 02/13/18 15:58:25 by SUMO netconvert Version 0.31.0
<?xml version="1.0" encoding="UTF-8"?>

<configuration xmlns:xsi="http://www.w3.org/2001/XMLSchema-instance" xsi:noNamespaceSchemaLocation="http://sumo.dlr.de/xsd/netconvertConfiguration.xsd">

    <input>
        <type-files value="C:\Program%20Files%20(x86)\DLR\Sumo\data\typemap\osmNetconvert.typ.xml"/>
        <osm-files value="osm_bbox.osm.xml"/>
    </input>

    <output>
        <output-file value="C:\Users\Rusheng\Sumo\2018-02-13-15-58-17\osm.net.xml"/>
        <output.street-names value="true"/>
        <output.original-names value="true"/>
    </output>

    <projection>
        <proj.utm value="true"/>
    </projection>

    <tls_building>
        <tls.discard-simple value="true"/>
        <tls.join value="true"/>
        <tls.guess-signals value="true"/>
        <tls.default-type value="actuated"/>
    </tls_building>

    <ramp_guessing>
        <ramps.guess value="true"/>
    </ramp_guessing>

    <processing>
        <geometry.remove value="true"/>
        <roundabouts.guess value="true"/>
        <junctions.join value="true"/>
        <junctions.corner-detail value="5"/>
    </processing>

    <report>
        <verbose value="true"/>
    </report>

</configuration>
-->

<net version="0.27" junctionCornerDetail="5" xmlns:xsi="http://www.w3.org/2001/XMLSchema-instance" xsi:noNamespaceSchemaLocation="http://sumo.dlr.de/xsd/net_file.xsd">

    <location netOffset="-589724.28,-4476884.34" convBoundary="0.00,0.00,2526.00,1102.45" origBoundary="-79.942027,40.437697,-79.912222,40.447585" projParameter="+proj=utm +zone=17 +ellps=WGS84 +datum=WGS84 +units=m +no_defs"/>

    <type id="highway.bridleway" priority="1" numLanes="1" speed="2.78" allow="pedestrian" oneway="1" width="2.00"/>
    <type id="highway.bus_guideway" priority="1" numLanes="1" speed="8.33" allow="bus" oneway="1"/>
    <type id="highway.cycleway" priority="1" numLanes="1" speed="5.56" allow="bicycle" oneway="0" width="1.00"/>
    <type id="highway.footway" priority="1" numLanes="1" speed="2.78" allow="pedestrian" oneway="1" width="2.00"/>
    <type id="highway.ford" priority="1" numLanes="1" speed="2.78" allow="army" oneway="0"/>
    <type id="highway.living_street" priority="3" numLanes="1" speed="2.78" disallow="tram rail_urban rail rail_electric ship" oneway="0"/>
    <type id="highway.motorway" priority="13" numLanes="2" speed="44.44" allow="private emergency authority army vip passenger hov taxi bus coach delivery truck trailer motorcycle evehicle custom1 custom2" oneway="1"/>
    <type id="highway.motorway_link" priority="12" numLanes="1" speed="22.22" allow="private emergency authority army vip passenger hov taxi bus coach delivery truck trailer motorcycle evehicle custom1 custom2" oneway="1"/>
    <type id="highway.path" priority="1" numLanes="1" speed="2.78" allow="bicycle pedestrian" oneway="1" width="2.00"/>
    <type id="highway.pedestrian" priority="1" numLanes="1" speed="2.78" allow="pedestrian" oneway="1" width="2.00"/>
    <type id="highway.primary" priority="9" numLanes="2" speed="27.78" disallow="tram rail_urban rail rail_electric ship" oneway="0"/>
    <type id="highway.primary_link" priority="8" numLanes="1" speed="22.22" disallow="tram rail_urban rail rail_electric ship" oneway="0"/>
    <type id="highway.raceway" priority="14" numLanes="2" speed="83.33" allow="vip" oneway="0"/>
    <type id="highway.residential" priority="4" numLanes="1" speed="13.89" disallow="tram rail_urban rail rail_electric ship" oneway="0"/>
    <type id="highway.secondary" priority="7" numLanes="2" speed="27.78" disallow="tram rail_urban rail rail_electric ship" oneway="0"/>
    <type id="highway.secondary_link" priority="6" numLanes="1" speed="22.22" disallow="tram rail_urban rail rail_electric ship" oneway="0"/>
    <type id="highway.service" priority="2" numLanes="1" speed="5.56" allow="delivery bicycle pedestrian" oneway="0"/>
    <type id="highway.services" priority="1" numLanes="1" speed="8.33" disallow="tram rail_urban rail rail_electric ship" oneway="0"/>
    <type id="highway.stairs" priority="1" numLanes="1" speed="1.39" allow="pedestrian" oneway="1" width="2.00"/>
    <type id="highway.step" priority="1" numLanes="1" speed="1.39" allow="pedestrian" oneway="1" width="2.00"/>
    <type id="highway.steps" priority="1" numLanes="1" speed="1.39" allow="pedestrian" oneway="1" width="2.00"/>
    <type id="highway.tertiary" priority="6" numLanes="1" speed="22.22" disallow="tram rail_urban rail rail_electric ship" oneway="0"/>
    <type id="highway.tertiary_link" priority="5" numLanes="1" speed="22.22" disallow="tram rail_urban rail rail_electric ship" oneway="0"/>
    <type id="highway.track" priority="1" numLanes="1" speed="5.56" disallow="tram rail_urban rail rail_electric ship" oneway="0"/>
    <type id="highway.trunk" priority="11" numLanes="2" speed="27.78" disallow="tram rail_urban rail rail_electric bicycle pedestrian ship" oneway="0"/>
    <type id="highway.trunk_link" priority="10" numLanes="1" speed="22.22" disallow="tram rail_urban rail rail_electric bicycle pedestrian ship" oneway="0"/>
    <type id="highway.unclassified" priority="5" numLanes="1" speed="13.89" disallow="tram rail_urban rail rail_electric ship" oneway="0"/>
    <type id="highway.unsurfaced" priority="1" numLanes="1" speed="8.33" disallow="tram rail_urban rail rail_electric ship" oneway="0"/>
    <type id="railway.light_rail" priority="15" numLanes="1" speed="27.78" allow="rail_urban" oneway="1"/>
    <type id="railway.preserved" priority="15" numLanes="1" speed="27.78" allow="rail" oneway="1"/>
    <type id="railway.rail" priority="15" numLanes="1" speed="83.33" allow="rail rail_electric" oneway="1"/>
    <type id="railway.subway" priority="15" numLanes="1" speed="27.78" allow="rail_urban" oneway="1"/>
    <type id="railway.tram" priority="15" numLanes="1" speed="13.89" allow="tram" oneway="1"/>

    <edge id=":104362422_0" function="internal">
        <lane id=":104362422_0_0" index="0" allow="delivery bicycle pedestrian" speed="5.56" length="4.82" shape="1334.35,754.19 1335.61,754.96 1336.06,755.77 1335.68,756.61 1334.47,757.48"/>
    </edge>
    <edge id=":104362428_0" function="internal">
        <lane id=":104362428_0_0" index="0" allow="delivery bicycle pedestrian" speed="5.56" length="4.82" shape="1230.50,761.47 1229.24,760.70 1228.79,759.89 1229.17,759.05 1230.38,758.17"/>
    </edge>
    <edge id=":104382834_0" function="internal">
        <lane id=":104382834_0_0" index="0" disallow="tram rail_urban rail rail_electric ship" speed="9.73" length="5.07" shape="402.55,191.28 402.01,189.99 401.19,189.21 400.09,188.94 398.71,189.17"/>
    </edge>
    <edge id=":104382834_1" function="internal">
        <lane id=":104382834_1_0" index="0" disallow="tram rail_urban rail rail_electric ship" speed="9.73" length="10.44" shape="402.55,191.28 402.21,188.40 402.83,186.10 404.43,184.39 407.00,183.25"/>
    </edge>
    <edge id=":104382834_2" function="internal">
        <lane id=":104382834_2_0" index="0" allow="delivery bicycle pedestrian" speed="5.56" length="4.82" shape="402.55,191.28 403.03,189.88 403.73,189.27 404.63,189.46 405.74,190.45"/>
    </edge>
    <edge id=":104382834_3" function="internal">
        <lane id=":104382834_3_0" index="0" allow="delivery bicycle pedestrian" speed="9.73" length="5.17" shape="407.88,186.44 406.63,186.99 405.86,187.85 405.56,189.00 405.74,190.45"/>
    </edge>
    <edge id=":104382834_4" function="internal">
        <lane id=":104382834_4_0" index="0" disallow="tram rail_urban rail rail_electric ship" speed="13.89" length="9.57" shape="407.88,186.44 398.71,189.17"/>
    </edge>
    <edge id=":104382834_5" function="internal">
        <lane id=":104382834_5_0" index="0" disallow="tram rail_urban rail rail_electric ship" speed="13.89" length="2.41" shape="407.88,186.44 406.47,185.97 405.85,185.28"/>
    </edge>
    <edge id=":104382834_9" function="internal">
        <lane id=":104382834_9_0" index="0" speed="13.89" length="2.41" shape="405.85,185.28 406.03,184.38 407.00,183.25"/>
    </edge>
    <edge id=":104382834_6" function="internal">
        <lane id=":104382834_6_0" index="0" disallow="tram rail_urban rail rail_electric ship" speed="13.89" length="9.71" shape="397.70,186.03 407.00,183.25"/>
    </edge>
    <edge id=":104382834_7" function="internal">
        <lane id=":104382834_7_0" index="0" allow="delivery bicycle pedestrian" speed="9.73" length="5.45" shape="397.70,186.03 400.59,185.54 402.89,186.11 403.00,186.22"/>
    </edge>
    <edge id=":104382834_8" function="internal">
        <lane id=":104382834_8_0" index="0" disallow="tram rail_urban rail rail_electric ship" speed="13.89" length="2.41" shape="397.70,186.03 399.13,186.43 399.77,187.09"/>
    </edge>
    <edge id=":104382834_10" function="internal">
        <lane id=":104382834_10_0" index="0" speed="9.73" length="5.15" shape="403.00,186.22 404.61,187.75 405.74,190.45"/>
    </edge>
    <edge id=":104382834_11" function="internal">
        <lane id=":104382834_11_0" index="0" speed="13.89" length="2.41" shape="399.77,187.09 399.63,188.01 398.71,189.17"/>
    </edge>
    <edge id=":104382840_0" function="internal">
        <lane id=":104382840_0_0" index="0" allow="delivery bicycle pedestrian" speed="5.56" length="5.02" shape="412.20,227.88 411.64,226.64 410.82,225.87 409.71,225.56 408.34,225.73"/>
    </edge>
    <edge id=":104382840_1" function="internal">
        <lane id=":104382840_1_0" index="0" allow="delivery bicycle pedestrian" speed="5.56" length="9.46" shape="412.20,227.88 409.71,218.75"/>
    </edge>
    <edge id=":104382840_2" function="internal">
        <lane id=":104382840_2_0" index="0" allow="delivery bicycle pedestrian" speed="5.56" length="4.82" shape="412.20,227.88 412.65,226.47 413.33,225.84 414.24,226.01 415.37,226.98"/>
    </edge>
    <edge id=":104382840_3" function="internal">
        <lane id=":104382840_3_0" index="0" allow="delivery bicycle pedestrian" speed="5.56" length="9.39" shape="412.90,217.92 415.37,226.98"/>
    </edge>
    <edge id=":104382840_4" function="internal">
        <lane id=":104382840_4_0" index="0" allow="delivery bicycle pedestrian" speed="5.56" length="10.30" shape="412.90,217.92 413.22,220.72 412.57,222.96 410.94,224.63 408.34,225.73"/>
    </edge>
    <edge id=":104382840_5" function="internal">
        <lane id=":104382840_5_0" index="0" allow="delivery bicycle pedestrian" speed="5.56" length="4.82" shape="412.90,217.92 412.42,219.33 411.72,219.93 410.82,219.74 409.71,218.75"/>
    </edge>
    <edge id=":104382840_6" function="internal">
        <lane id=":104382840_6_0" index="0" allow="delivery bicycle pedestrian" speed="5.56" length="5.00" shape="407.50,222.54 408.76,222.01 409.55,221.20 409.86,220.11 409.71,218.75"/>
    </edge>
    <edge id=":104382840_7" function="internal">
        <lane id=":104382840_7_0" index="0" allow="delivery bicycle pedestrian" speed="5.56" length="10.26" shape="407.50,222.54 410.29,222.21 412.54,222.84 414.23,224.43 415.37,226.98"/>
    </edge>
    <edge id=":104382840_8" function="internal">
        <lane id=":104382840_8_0" index="0" allow="delivery bicycle pedestrian" speed="5.56" length="4.82" shape="407.50,222.54 408.91,223.02 409.52,223.71 409.33,224.61 408.34,225.73"/>
    </edge>
    <edge id=":104523048_0" function="internal">
        <lane id=":104523048_0_0" index="0" disallow="tram rail_urban rail rail_electric ship" speed="13.89" length="4.82" shape="570.37,718.69 570.85,720.10 570.67,721.01 569.84,721.41 568.35,721.30"/>
    </edge>
    <edge id=":104523055_0" function="internal">
        <lane id=":104523055_0_0" index="0" disallow="tram rail_urban rail rail_electric ship" speed="13.89" length="8.26" shape="545.65,703.73 543.70,702.25 542.29,701.34 540.78,700.59 538.52,699.63"/>
    </edge>
    <edge id=":104523055_1" function="internal">
        <lane id=":104523055_1_0" index="0" disallow="tram rail_urban rail rail_electric ship" speed="13.89" length="4.73" shape="545.65,703.73 543.91,701.93 543.04,699.88"/>
    </edge>
    <edge id=":104523055_2" function="internal">
        <lane id=":104523055_2_0" index="0" disallow="tram rail_urban rail rail_electric ship" speed="13.89" length="2.41" shape="545.65,703.73 545.18,702.32 545.35,701.42"/>
    </edge>
    <edge id=":104523055_9" function="internal">
        <lane id=":104523055_9_0" index="0" speed="13.89" length="4.97" shape="543.04,699.88 543.04,697.59 543.91,695.05"/>
    </edge>
    <edge id=":104523055_10" function="internal">
        <lane id=":104523055_10_0" index="0" speed="13.89" length="2.41" shape="545.35,701.42 546.18,701.02 547.67,701.12"/>
    </edge>
    <edge id=":104523055_3" function="internal">
        <lane id=":104523055_3_0" index="0" disallow="tram rail_urban rail rail_electric ship" speed="13.89" length="5.13" shape="546.87,696.50 546.39,697.88 546.36,699.11 546.79,700.19 547.67,701.12"/>
    </edge>
    <edge id=":104523055_4" function="internal">
        <lane id=":104523055_4_0" index="0" disallow="tram rail_urban rail rail_electric ship" speed="13.89" length="10.04" shape="546.87,696.50 545.34,698.77 543.44,700.04 541.16,700.33 538.52,699.63"/>
    </edge>
    <edge id=":104523055_5" function="internal">
        <lane id=":104523055_5_0" index="0" disallow="tram rail_urban rail rail_electric ship" speed="13.89" length="4.82" shape="546.87,696.50 545.59,697.25 544.66,697.26 544.10,696.53 543.91,695.05"/>
    </edge>
    <edge id=":104523055_6" function="internal">
        <lane id=":104523055_6_0" index="0" disallow="tram rail_urban rail rail_electric ship" speed="13.89" length="4.93" shape="539.81,696.59 541.10,696.93 542.22,696.79 543.15,696.16 543.91,695.05"/>
    </edge>
    <edge id=":104523055_7" function="internal">
        <lane id=":104523055_7_0" index="0" disallow="tram rail_urban rail rail_electric ship" speed="13.89" length="9.12" shape="539.81,696.59 542.29,697.65 543.96,698.48 545.51,699.49 547.67,701.12"/>
    </edge>
    <edge id=":104523055_8" function="internal">
        <lane id=":104523055_8_0" index="0" disallow="tram rail_urban rail rail_electric ship" speed="13.89" length="2.41" shape="539.81,696.59 540.63,697.83 540.68,698.75"/>
    </edge>
    <edge id=":104523055_11" function="internal">
        <lane id=":104523055_11_0" index="0" speed="13.89" length="2.41" shape="540.68,698.75 539.98,699.35 538.52,699.63"/>
    </edge>
    <edge id=":104523061_0" function="internal">
        <lane id=":104523061_0_0" index="0" disallow="tram rail_urban rail rail_electric ship" speed="13.89" length="4.82" shape="480.39,675.10 479.57,673.86 479.51,672.94 480.21,672.34 481.67,672.06"/>
    </edge>
    <edge id=":104538933_0" function="internal">
        <lane id=":104538933_0_0" index="0" disallow="tram rail_urban rail rail_electric ship" speed="22.22" length="4.82" shape="913.20,882.32 914.33,883.29 914.64,884.16 914.12,884.93 912.79,885.59"/>
    </edge>
    <edge id=":104538949_0" function="internal">
        <lane id=":104538949_0_0" index="0" disallow="tram rail_urban rail rail_electric ship" speed="11.18" length="10.51" shape="1096.35,782.33 1087.30,787.71"/>
        <lane id=":104538949_0_1" index="1" disallow="tram rail_urban rail rail_electric ship" speed="11.18" length="10.51" shape="1094.66,779.50 1085.64,784.86"/>
    </edge>
    <edge id=":104538949_2" function="internal">
        <lane id=":104538949_2_0" index="0" disallow="tram rail_urban rail rail_electric ship" speed="12.53" length="6.13" shape="1094.66,779.50 1090.28,781.24 1088.89,780.95"/>
    </edge>
    <edge id=":104538949_3" function="internal">
        <lane id=":104538949_3_0" index="0" disallow="tram rail_urban rail rail_electric ship" speed="11.18" length="2.41" shape="1094.66,779.50 1093.17,779.42 1092.39,778.93"/>
    </edge>
    <edge id=":104538949_11" function="internal">
        <lane id=":104538949_11_0" index="0" speed="12.53" length="11.16" shape="1088.89,780.95 1087.09,780.56 1085.06,777.45 1084.21,771.92"/>
    </edge>
    <edge id=":104538949_12" function="internal">
        <lane id=":104538949_12_0" index="0" speed="11.18" length="2.41" shape="1092.39,778.93 1092.33,778.01 1092.97,776.66"/>
    </edge>
    <edge id=":104538949_4" function="internal">
        <lane id=":104538949_4_0" index="0" disallow="tram rail_urban rail rail_electric ship" speed="12.53" length="5.77" shape="1087.51,771.79 1087.81,773.49 1088.53,774.39 1089.69,774.51 1091.27,773.83"/>
    </edge>
    <edge id=":104538949_5" function="internal">
        <lane id=":104538949_5_0" index="0" disallow="tram rail_urban rail rail_electric ship" speed="12.53" length="13.49" shape="1087.51,771.79 1087.56,777.00 1087.27,780.91 1086.63,783.53 1085.64,784.86"/>
    </edge>
    <edge id=":104538949_6" function="internal">
        <lane id=":104538949_6_0" index="0" disallow="tram rail_urban rail rail_electric ship" speed="13.89" length="4.82" shape="1087.51,771.79 1086.73,773.06 1085.92,773.50 1085.08,773.12 1084.21,771.92"/>
    </edge>
    <edge id=":104538949_7" function="internal">
        <lane id=":104538949_7_0" index="0" disallow="tram rail_urban rail rail_electric ship" speed="12.53" length="7.76" shape="1082.32,779.15 1083.23,778.24 1083.85,776.73 1084.18,774.62 1084.21,771.92"/>
    </edge>
    <edge id=":104538949_8" function="internal">
        <lane id=":104538949_8_0" index="0" disallow="tram rail_urban rail rail_electric ship" speed="11.18" length="10.44" shape="1082.32,779.15 1091.27,773.83"/>
        <lane id=":104538949_8_1" index="1" disallow="tram rail_urban rail rail_electric ship" speed="11.18" length="10.44" shape="1083.98,782.01 1092.97,776.66"/>
    </edge>
    <edge id=":104538949_10" function="internal">
        <lane id=":104538949_10_0" index="0" disallow="tram rail_urban rail rail_electric ship" speed="11.18" length="2.41" shape="1083.98,782.01 1085.46,782.10 1086.23,782.60"/>
    </edge>
    <edge id=":104538949_13" function="internal">
        <lane id=":104538949_13_0" index="0" speed="11.18" length="2.41" shape="1086.23,782.60 1086.29,783.52 1085.64,784.86"/>
    </edge>
    <edge id=":104538959_0" function="internal">
        <lane id=":104538959_0_0" index="0" disallow="tram rail_urban rail rail_electric ship" speed="12.53" length="9.65" shape="1200.85,722.21 1198.92,722.75 1197.46,724.14 1196.46,726.40 1195.93,729.51"/>
    </edge>
    <edge id=":104538959_1" function="internal">
        <lane id=":104538959_1_0" index="0" disallow="tram rail_urban rail rail_electric ship" speed="11.18" length="13.77" shape="1200.85,722.21 1197.09,722.63 1194.62,723.50 1192.32,724.92 1189.07,727.00"/>
        <lane id=":104538959_1_1" index="1" disallow="tram rail_urban rail rail_electric ship" speed="11.18" length="13.77" shape="1200.68,718.91 1196.45,719.37 1193.65,720.30 1191.04,721.85 1187.37,724.17"/>
    </edge>
    <edge id=":104538959_3" function="internal">
        <lane id=":104538959_3_0" index="0" disallow="tram rail_urban rail rail_electric ship" speed="11.18" length="4.39" shape="1200.68,718.91 1197.59,718.43 1196.62,717.63"/>
    </edge>
    <edge id=":104538959_4" function="internal">
        <lane id=":104538959_4_0" index="0" disallow="tram rail_urban rail rail_electric ship" speed="11.18" length="2.41" shape="1200.68,718.91 1199.40,718.15 1198.95,717.35"/>
    </edge>
    <edge id=":104538959_18" function="internal">
        <lane id=":104538959_18_0" index="0" speed="11.18" length="9.30" shape="1196.62,717.63 1195.43,716.64 1194.21,713.54 1193.92,709.13"/>
    </edge>
    <edge id=":104538959_19" function="internal">
        <lane id=":104538959_19_0" index="0" speed="11.18" length="2.41" shape="1198.95,717.35 1199.32,716.50 1200.51,715.62"/>
    </edge>
    <edge id=":104538959_5" function="internal">
        <lane id=":104538959_5_0" index="0" disallow="tram rail_urban rail rail_electric ship" speed="11.18" length="5.11" shape="1197.22,709.24 1197.37,710.65 1197.95,711.63 1198.94,712.19 1200.35,712.32"/>
    </edge>
    <edge id=":104538959_6" function="internal">
        <lane id=":104538959_6_0" index="0" disallow="tram rail_urban rail rail_electric ship" speed="12.53" length="20.31" shape="1197.22,709.24 1195.93,729.51"/>
    </edge>
    <edge id=":104538959_7" function="internal">
        <lane id=":104538959_7_0" index="0" disallow="tram rail_urban rail rail_electric ship" speed="11.18" length="7.80" shape="1197.22,709.24 1196.48,713.64 1195.05,716.65"/>
    </edge>
    <edge id=":104538959_8" function="internal">
        <lane id=":104538959_8_0" index="0" disallow="tram rail_urban rail rail_electric ship" speed="11.18" length="2.52" shape="1197.22,709.24 1196.35,710.45 1195.51,710.83 1195.42,710.78"/>
    </edge>
    <edge id=":104538959_20" function="internal">
        <lane id=":104538959_20_0" index="0" speed="11.18" length="10.87" shape="1195.05,716.65 1194.60,717.60 1191.56,721.11 1187.37,724.17"/>
    </edge>
    <edge id=":104538959_21" function="internal">
        <lane id=":104538959_21_0" index="0" speed="11.18" length="2.30" shape="1195.42,710.78 1194.70,710.39 1193.92,709.13"/>
    </edge>
    <edge id=":104538959_9" function="internal">
        <lane id=":104538959_9_0" index="0" disallow="tram rail_urban rail rail_electric ship" speed="11.18" length="14.00" shape="1183.99,718.50 1188.29,715.72 1191.38,713.23 1193.26,711.03 1193.92,709.13"/>
    </edge>
    <edge id=":104538959_10" function="internal">
        <lane id=":104538959_10_0" index="0" disallow="tram rail_urban rail rail_electric ship" speed="11.18" length="17.00" shape="1183.99,718.50 1188.49,715.71 1191.71,713.90 1195.16,712.84 1200.35,712.32"/>
        <lane id=":104538959_10_1" index="1" disallow="tram rail_urban rail rail_electric ship" speed="11.18" length="17.00" shape="1185.68,721.34 1189.76,718.78 1192.68,717.10 1195.81,716.11 1200.51,715.62"/>
    </edge>
    <edge id=":104538959_12" function="internal">
        <lane id=":104538959_12_0" index="0" disallow="tram rail_urban rail rail_electric ship" speed="12.53" length="6.60" shape="1185.68,721.34 1190.64,719.27 1191.84,719.51"/>
    </edge>
    <edge id=":104538959_13" function="internal">
        <lane id=":104538959_13_0" index="0" disallow="tram rail_urban rail rail_electric ship" speed="11.18" length="2.41" shape="1185.68,721.34 1187.17,721.41 1187.95,721.91"/>
    </edge>
    <edge id=":104538959_22" function="internal">
        <lane id=":104538959_22_0" index="0" speed="12.53" length="12.20" shape="1191.84,719.51 1194.00,719.95 1195.76,723.36 1195.93,729.51"/>
    </edge>
    <edge id=":104538959_23" function="internal">
        <lane id=":104538959_23_0" index="0" speed="11.18" length="2.41" shape="1187.95,721.91 1188.01,722.83 1187.37,724.17"/>
    </edge>
    <edge id=":104538959_14" function="internal">
        <lane id=":104538959_14_0" index="0" disallow="tram rail_urban rail rail_electric ship" speed="12.53" length="6.08" shape="1192.64,729.24 1192.56,727.37 1191.94,726.38 1190.78,726.26 1189.07,727.00"/>
    </edge>
    <edge id=":104538959_15" function="internal">
        <lane id=":104538959_15_0" index="0" disallow="tram rail_urban rail rail_electric ship" speed="12.53" length="20.15" shape="1192.64,729.24 1193.92,709.13"/>
    </edge>
    <edge id=":104538959_16" function="internal">
        <lane id=":104538959_16_0" index="0" disallow="tram rail_urban rail rail_electric ship" speed="12.53" length="9.81" shape="1192.64,729.24 1193.55,723.41 1194.95,719.76"/>
    </edge>
    <edge id=":104538959_17" function="internal">
        <lane id=":104538959_17_0" index="0" disallow="tram rail_urban rail rail_electric ship" speed="13.89" length="2.41" shape="1192.64,729.24 1193.57,728.07 1194.42,727.73"/>
    </edge>
    <edge id=":104538959_24" function="internal">
        <lane id=":104538959_24_0" index="0" speed="12.53" length="7.27" shape="1194.95,719.76 1195.17,719.19 1197.49,716.59 1200.51,715.62"/>
    </edge>
    <edge id=":104538959_25" function="internal">
        <lane id=":104538959_25_0" index="0" speed="13.89" length="2.41" shape="1194.42,727.73 1195.21,728.21 1195.93,729.51"/>
    </edge>
    <edge id=":104538976_0" function="internal">
        <lane id=":104538976_0_0" index="0" disallow="tram rail_urban rail rail_electric ship" speed="11.18" length="4.82" shape="1356.16,707.73 1357.44,708.49 1357.89,709.29 1357.52,710.14 1356.33,711.02"/>
    </edge>
    <edge id=":104583190_0" function="internal">
        <lane id=":104583190_0_0" index="0" disallow="tram rail_urban rail rail_electric ship" speed="22.22" length="4.82" shape="268.36,686.97 267.66,685.65 267.70,684.73 268.45,684.20 269.94,684.07"/>
    </edge>
    <edge id=":104583203_0" function="internal">
        <lane id=":104583203_0_0" index="0" disallow="tram rail_urban rail rail_electric ship" speed="18.06" length="5.46" shape="409.76,769.26 408.30,768.64 407.16,768.73 406.31,769.51 405.78,771.00"/>
    </edge>
    <edge id=":104583203_1" function="internal">
        <lane id=":104583203_1_0" index="0" disallow="tram rail_urban rail rail_electric ship" speed="22.22" length="9.89" shape="409.76,769.26 401.26,764.20"/>
    </edge>
    <edge id=":104583203_2" function="internal">
        <lane id=":104583203_2_0" index="0" disallow="tram rail_urban rail rail_electric ship" speed="22.22" length="2.41" shape="409.76,769.26 409.12,767.91 409.19,766.99"/>
    </edge>
    <edge id=":104583203_9" function="internal">
        <lane id=":104583203_9_0" index="0" speed="22.22" length="2.41" shape="409.19,766.99 409.97,766.50 411.46,766.43"/>
    </edge>
    <edge id=":104583203_3" function="internal">
        <lane id=":104583203_3_0" index="0" disallow="tram rail_urban rail rail_electric ship" speed="22.22" length="9.93" shape="402.92,761.35 411.46,766.43"/>
    </edge>
    <edge id=":104583203_4" function="internal">
        <lane id=":104583203_4_0" index="0" disallow="tram rail_urban rail rail_electric ship" speed="18.06" length="4.77" shape="402.92,761.35 404.73,762.91 405.81,765.03"/>
    </edge>
    <edge id=":104583203_5" function="internal">
        <lane id=":104583203_5_0" index="0" disallow="tram rail_urban rail rail_electric ship" speed="22.22" length="2.41" shape="402.92,761.35 403.57,762.69 403.51,763.61"/>
    </edge>
    <edge id=":104583203_10" function="internal">
        <lane id=":104583203_10_0" index="0" speed="18.06" length="6.01" shape="405.81,765.03 406.15,767.73 405.78,771.00"/>
    </edge>
    <edge id=":104583203_11" function="internal">
        <lane id=":104583203_11_0" index="0" speed="22.22" length="2.41" shape="403.51,763.61 402.74,764.11 401.26,764.20"/>
    </edge>
    <edge id=":104583203_6" function="internal">
        <lane id=":104583203_6_0" index="0" disallow="tram rail_urban rail rail_electric ship" speed="18.06" length="6.65" shape="402.55,770.32 402.84,768.14 402.72,766.40 402.20,765.09 401.26,764.20"/>
    </edge>
    <edge id=":104583203_7" function="internal">
        <lane id=":104583203_7_0" index="0" disallow="tram rail_urban rail rail_electric ship" speed="18.06" length="12.22" shape="402.55,770.32 403.75,767.00 405.63,765.24 408.20,765.05 411.46,766.43"/>
    </edge>
    <edge id=":104583203_8" function="internal">
        <lane id=":104583203_8_0" index="0" disallow="tram rail_urban rail rail_electric ship" speed="13.89" length="4.82" shape="402.55,770.32 403.61,769.28 404.50,769.04 405.22,769.62 405.78,771.00"/>
    </edge>
    <edge id=":104583248_0" function="internal">
        <lane id=":104583248_0_0" index="0" disallow="tram rail_urban rail rail_electric ship" speed="22.22" length="9.42" shape="742.96,864.56 733.61,863.49"/>
    </edge>
    <edge id=":104583248_1" function="internal">
        <lane id=":104583248_1_0" index="0" disallow="tram rail_urban rail rail_electric ship" speed="18.06" length="5.11" shape="742.96,864.56 740.27,863.83 738.44,862.40"/>
    </edge>
    <edge id=":104583248_2" function="internal">
        <lane id=":104583248_2_0" index="0" disallow="tram rail_urban rail rail_electric ship" speed="22.22" length="2.41" shape="742.96,864.56 741.84,863.59 741.53,862.72"/>
    </edge>
    <edge id=":104583248_9" function="internal">
        <lane id=":104583248_9_0" index="0" speed="18.06" length="5.17" shape="738.44,862.40 737.47,860.27 737.36,857.44"/>
    </edge>
    <edge id=":104583248_10" function="internal">
        <lane id=":104583248_10_0" index="0" speed="22.22" length="2.41" shape="741.53,862.72 742.04,861.96 743.37,861.29"/>
    </edge>
    <edge id=":104583248_3" function="internal">
        <lane id=":104583248_3_0" index="0" disallow="tram rail_urban rail rail_electric ship" speed="18.06" length="5.05" shape="740.64,857.77 740.70,859.17 741.17,860.22 742.06,860.93 743.37,861.29"/>
    </edge>
    <edge id=":104583248_4" function="internal">
        <lane id=":104583248_4_0" index="0" disallow="tram rail_urban rail rail_electric ship" speed="18.06" length="10.35" shape="740.64,857.77 739.96,860.53 738.57,862.40 736.45,863.39 733.61,863.49"/>
    </edge>
    <edge id=":104583248_5" function="internal">
        <lane id=":104583248_5_0" index="0" disallow="tram rail_urban rail rail_electric ship" speed="13.89" length="4.82" shape="740.64,857.77 739.70,858.92 738.84,859.25 738.06,858.76 737.36,857.44"/>
    </edge>
    <edge id=":104583248_6" function="internal">
        <lane id=":104583248_6_0" index="0" disallow="tram rail_urban rail rail_electric ship" speed="18.06" length="5.01" shape="733.96,860.21 735.33,860.16 736.36,859.68 737.03,858.77 737.36,857.44"/>
    </edge>
    <edge id=":104583248_7" function="internal">
        <lane id=":104583248_7_0" index="0" disallow="tram rail_urban rail rail_electric ship" speed="22.22" length="9.47" shape="733.96,860.21 743.37,861.29"/>
    </edge>
    <edge id=":104583248_8" function="internal">