<?xml version="1.0"?>
<!-- generated on 2018-02-13 15:58:27.227000 by $Id: route2trips.py 25256 2017-07-19 06:38:15Z behrisch $ via randomTrips.py
  options: 
-->
<routes xmlns:xsi="http://www.w3.org/2001/XMLSchema-instance" xsi:noNamespaceSchemaLocation="http://sumo.dlr.de/xsd/routes_file.xsd">
    <vType id="passenger" speedFactor="normc(1.00,0.10,0.20,2.00)" vClass="passenger">
    </vType>
    <trip id="veh0" depart="0.00" departLane="best" from="-11949119" to="-11851716" type="passenger"/>
    <trip id="veh3" depart="34.28" departLane="best" from="-11657438#2" to="-11828372#0" type="passenger"/>
    <trip id="veh4" depart="45.70" departLane="best" from="11734289#0" to="11699690#7" type="passenger"/>
    <trip id="veh5" depart="57.13" departLane="best" from="11965026#0" to="-11657438#1" type="passenger"/>
    <trip id="veh6" depart="68.55" departLane="best" from="11963734#2" to="11830624#1" type="passenger"/>
    <trip id="veh8" depart="91.40" departLane="best" from="54509010#2" to="-318681921#3" type="passenger"/>
    <trip id="veh9" depart="102.83" departLane="best" from="-11699690#6" to="-11722673#2" type="passenger"/>
    <trip id="veh10" depart="114.25" departLane="best" from="313329257#0" to="11722673#2" type="passenger"/>
    <trip id="veh11" depart="125.68" departLane="best" from="11963734#2" to="11949119" type="passenger"/>
    <trip id="veh12" depart="137.10" departLane="best" from="-54509012#9" to="54509012#4" type="passenger"/>
    <trip id="veh13" depart="148.53" departLane="best" from="-313329257#3" to="11699690#8" type="passenger"/>
    <trip id="veh14" depart="159.95" departLane="best" from="294779091#0" to="11734289#2" type="passenger"/>
    <trip id="veh15" depart="171.38" departLane="best" from="313329257#2" to="11702104" type="passenger"/>
    <trip id="veh16" depart="182.80" departLane="best" from="11812897" to="-11690395#1" type="passenger"/>
    <trip id="veh17" depart="194.23" departLane="best" from="-11823485#3" to="-313329257#0" type="passenger"/>
    <trip id="veh18" depart="205.65" departLane="best" from="-11699690#8" to="-27643478" type="passenger"/>
    <trip id="veh19" depart="217.08" departLane="best" from="11722673#0" to="-322188335" type="passenger"/>
    <trip id="veh20" depart="228.50" departLane="best" from="-313329257#1" to="-11830624#1" type="passenger"/>
    <trip id="veh21" depart="239.93" departLane="best" from="-11830624#2" to="54509010#6" type="passenger"/>
    <trip id="veh22" depart="251.35" departLane="best" from="-11734289#2" to="11949119" type="passenger"/>
    <trip id="veh23" depart="262.78" departLane="best" from="-11734289#0" to="-366700511#2" type="passenger"/>
    <trip id="veh24" depart="274.20" departLane="best" from="54509012#3" to="11810524" type="passenger"/>
    <trip id="veh25" depart="285.63" departLane="best" from="11657438#1" to="11828372#0" type="passenger"/>
    <trip id="veh28" depart="319.90" departLane="best" from="-267171458" to="-11965026#1" type="passenger"/>
    <trip id="veh29" depart="331.33" departLane="best" from="-11822004#1" to="54509010#8" type="passenger"/>
    <trip id="veh30" depart="342.75" departLane="best" from="11734289#1" to="-468563989" type="passenger"/>
    <trip id="veh31" depart="354.18" departLane="best" from="335532205#0" to="11657438#1" type="passenger"/>
    <trip id="veh32" depart="365.61" departLane="best" from="-11830624#2" to="-11963734#0" type="passenger"/>
    <trip id="veh33" depart="377.03" departLane="best" from="11685539#0" to="-11965026#0" type="passenger"/>
    <trip id="veh34" depart="388.46" departLane="best" from="-315560677#1" to="-11851716" type="passenger"/>
    <trip id="veh37" depart="422.73" departLane="best" from="-11699690#8" to="11742093#1" type="passenger"/>
    <trip id="veh38" depart="434.16" departLane="best" from="11963734#0" to="-54509010#5" type="passenger"/>
    <trip id="veh40" depart="457.01" departLane="best" from="54509012#5" to="11699690#2" type="passenger"/>
    <trip id="veh41" depart="468.43" departLane="best" from="54509010#5" to="318681921#2" type="passenger"/>
    <trip id="veh42" depart="479.86" departLane="best" from="-11657438#2" to="11949119" type="passenger"/>
    <trip id="veh44" depart="502.71" departLane="best" from="-11830624#2" to="11810524" type="passenger"/>
    <trip id="veh45" depart="514.13" departLane="best" from="-11699690#8" to="-54509012#1" type="passenger"/>
    <trip id="veh46" depart="525.56" departLane="best" from="-366700511#1" to="54509010#8" type="passenger"/>
    <trip id="veh47" depart="536.98" departLane="best" from="318681921#1" to="-11965026#0" type="passenger"/>
    <trip id="veh48" depart="548.41" departLane="best" from="-54509010#8" to="-11823485#0" type="passenger"/>
    <trip id="veh49" depart="559.83" departLane="best" from="322188335" to="318681921#4" type="passenger"/>
    <trip id="veh50" depart="571.26" departLane="best" from="-11963734#2" to="11810524" type="passenger"/>
    <trip id="veh51" depart="582.68" departLane="best" from="11851716" to="11699690#6" type="passenger"/>
    <trip id="veh52" depart="594.11" departLane="best" from="-11657438#0" to="-315560677#0" type="passenger"/>
    <trip id="veh53" depart="605.53" departLane="best" from="-11657438#2" to="54509010#4" type="passenger"/>
    <trip id="veh54" depart="616.96" departLane="best" from="318681921#1" to="315560677#0" type="passenger"/>
    <trip id="veh55" depart="628.38" departLane="best" from="-11965026#1" to="-11699690#1" type="passenger"/>
    <trip id="veh56" depart="639.81" departLane="best" from="318681921#1" to="54509010#8" type="passenger"/>
    <trip id="veh57" depart="651.23" departLane="best" from="-11699690#3" to="11685539#1" type="passenger"/>
    <trip id="veh58" depart="662.66" departLane="best" from="11851716" to="-11742522" type="passenger"/>
    <trip id="veh59" depart="674.08" departLane="best" from="-54509010#3" to="11699690#8" type="passenger"/>
    <trip id="veh60" depart="685.51" departLane="best" from="-11830624#2" to="318681921#5" type="passenger"/>
    <trip id="veh61" depart="696.93" departLane="best" from="-318681921#5" to="-11851716" type="passenger"/>
    <trip id="veh62" depart="708.36" departLane="best" from="-54509012#9" to="11949119" type="passenger"/>
    <trip id="veh63" depart="719.79" departLane="best" from="-11810524" to="-313329257#1" type="passenger"/>
    <trip id="veh64" depart="731.21" departLane="best" from="54509012#4" to="11810524" type="passenger"/>
    <trip id="veh66" depart="754.06" departLane="best" from="-11702104" to="-11851716" type="passenger"/>
    <trip id="veh67" depart="765.49" departLane="best" from="-27643478" to="11707545" type="passenger"/>
    <trip id="veh68" depart="776.91" departLane="best" from="-11823485#3" to="-11851716" type="passenger"/>
    <trip id="veh69" depart="788.34" departLane="best" from="-11699690#0" to="11742093#2" type="passenger"/>
    <trip id="veh70" depart="799.76" departLane="best" from="-11823485#3" to="366700511#1" type="passenger"/>
    <trip id="veh71" depart="811.19" departLane="best" from="313329257#2" to="-11699690#6" type="passenger"/>
    <trip id="veh72" depart="822.61" departLane="best" from="-11828372#0" to="11823485#1" type="passenger"/>
    <trip id="veh74" depart="845.46" departLane="best" from="11963734#2" to="-11823485#3" type="passenger"/>
    <trip id="veh75" depart="856.89" departLane="best" from="-11699690#7" to="-54509012#0" type="passenger"/>
    <trip id="veh76" depart="868.31" departLane="best" from="313329257#2" to="-11963734#0" type="passenger"/>
    <trip id="veh77" depart="879.74" departLane="best" from="-11810524" to="-54509012#4" type="passenger"/>
    <trip id="veh78" depart="891.16" departLane="best" from="-318681921#5" to="-27643478" type="passenger"/>
    <trip id="veh79" depart="902.59" departLane="best" from="-322188335" to="318681921#2" type="passenger"/>
    <trip id="veh81" depart="925.44" departLane="best" from="54509012#5" to="315560677#1" type="passenger"/>
    <trip id="veh83" depart="948.29" departLane="best" from="-54509010#6" to="-11851716" type="passenger"/>
    <trip id="veh84" depart="959.71" departLane="best" from="-315560677#1" to="-11699690#2" type="passenger"/>
    <trip id="veh85" depart="971.14" departLane="best" from="-315560677#0" to="54509012#6" type="passenger"/>
    <trip id="veh87" depart="993.99" departLane="best" from="-366700511#1" to="-54509010#5" type="passenger"/>
    <trip id="veh88" depart="1005.41" departLane="best" from="54509010#2" to="54509012#6" type="passenger"/>
    <trip id="veh89" depart="1016.84" departLane="best" from="11657438#1" to="11830624#2" type="passenger"/>
    <trip id="veh90" depart="1028.26" departLane="best" from="-11722673#2" to="-313329257#0" type="passenger"/>
    <trip id="veh91" depart="1039.69" departLane="best" from="-54509012#9" to="11963734#2" type="passenger"/>
    <trip id="veh93" depart="1062.54" departLane="best" from="-54509010#8" to="318681921#0" type="passenger"/>
    <trip id="veh94" depart="1073.97" departLane="best" from="-11699690#2" to="-11823485#2" type="passenger"/>
    <trip id="veh96" depart="1096.82" departLane="best" from="318681921#4" to="-11963734#0" type="passenger"/>
    <trip id="veh98" depart="1119.67" departLane="best" from="-318681921#4" to="11702104" type="passenger"/>
    <trip id="veh99" depart="1131.09" departLane="best" from="-11810524" to="11830624#2" type="passenger"/>
    <trip id="veh100" depart="1142.52" departLane="best" from="11742093#2" to="-313329257#0" type="passenger"/>
    <trip id="veh101" depart="1153.94" departLane="best" from="-267171458" to="11965026#0" type="passenger"/>
    <trip id="veh102" depart="1165.37" departLane="best" from="-11699690#0" to="11657438#1" type="passenger"/>
    <trip id="veh103" depart="1176.79" departLane="best" from="54509012#5" to="54509012#6" type="passenger"/>
    <trip id="veh104" depart="1188.22" departLane="best" from="-11699690#0" to="-11851716" type="passenger"/>
    <trip id="veh105" depart="1199.64" departLane="best" from="-11830624#2" to="54509010#5" type="passenger"/>
    <trip id="veh106" depart="1211.07" departLane="best" from="318681921#2" to="318681921#5" type="passenger"/>
    <trip id="veh108" depart="1233.92" departLane="best" from="294779091#1" to="11830624#2" type="passenger"/>
    <trip id="veh109" depart="1245.34" departLane="best" from="11699690#3" to="54509012#6" type="passenger"/>
    <trip id="veh110" depart="1256.77" departLane="best" from="266070270" to="-313329257#0" type="passenger"/>
    <trip id="veh111" depart="1268.19" departLane="best" from="11742093#0" to="54509010#8" type="passenger"/>
    <trip id="veh112" depart="1279.62" departLane="best" from="-11949119" to="11722673#2" type="passenger"/>
    <trip id="veh113" depart="1291.04" departLane="best" from="11822004#0" to="-11830624#0" type="passenger"/>
    <trip id="veh114" depart="1302.47" departLane="best" from="11722673#0" to="-11965026#0" type="passenger"/>
    <trip id="veh115" depart="1313.89" departLane="best" from="-54509010#8" to="366700511#1" type="passenger"/>
    <trip id="veh116" depart="1325.32" departLane="best" from="313329257#0" to="-11722673#1" type="passenger"/>
    <trip id="veh117" depart="1336.74" departLane="best" from="-318681921#5" to="-267171460" type="passenger"/>
    <trip id="veh119" depart="1359.59" departLane="best" from="11722673#1" to="-11965026#0" type="passenger"/>
    <trip id="veh120" depart="1371.02" departLane="best" from="11823485#4" to="11699690#8" type="passenger"/>
    <trip id="veh121" depart="1382.44" departLane="best" from="-318681921#5" to="-11685539#0" type="passenger"/>
    <trip id="veh122" depart="1393.87" departLane="best" from="-11699690#1" to="318681921#5" type="passenger"/>
    <trip id="veh123" depart="1405.30" departLane="best" from="318681923" to="11699690#7" type="passenger"/>
    <trip id="veh124" depart="1416.72" departLane="best" from="-11965026#1" to="366700511#0" type="passenger"/>
    <trip id="veh125" depart="1428.15" departLane="best" from="11963734#0" to="318681921#2" type="passenger"/>
    <trip id="veh126" depart="1439.57" departLane="best" from="318681923" to="-11830624#1" type="passenger"/>
    <trip id="veh127" depart="1451.00" departLane="best" from="-11830624#1" to="-11734289#0" type="passenger"/>
    <trip id="veh128" depart="1462.42" departLane="best" from="11951808" to="318681921#5" type="passenger"/>
    <trip id="veh129" depart="1473.85" departLane="best" from="-318681921#1" to="11734289#2" type="passenger"/>
    <trip id="veh130" depart="1485.27" departLane="best" from="-11722673#2" to="54509010#5" type="passenger"/>
    <trip id="veh131" depart="1496.70" departLane="best" from="313329257#3" to="54509012#4" type="passenger"/>
    <trip id="veh132" depart="1508.12" departLane="best" from="11965026#0" to="318681921#5" type="passenger"/>
    <trip id="veh133" depart="1519.55" departLane="best" from="-11657438#2" to="11949119" type="passenger"/>
    <trip id="veh134" depart="1530.97" departLane="best" from="-267171460" to="54509010#5" type="passenger"/>
    <trip id="veh135" depart="1542.40" departLane="best" from="11963734#1" to="318681921#3" type="passenger"/>
    <trip id="veh136" depart="1553.82" departLane="best" from="11963734#0" to="-11734289#1" type="passenger"/>
    <trip id="veh137" depart="1565.25" departLane="best" from="-11823485#1" to="313329257#1" type="passenger"/>
    <trip id="veh138" depart="1576.67" departLane="best" from="11963734#0" to="-11851716" type="passenger"/>
    <trip id="veh139" depart="1588.10" departLane="best" from="-11657438#2" to="-11823485#4" type="passenger"/>
    <trip id="veh140" depart="1599.52" departLane="best" from="-267171458" to="318681921#3" type="passenger"/>
    <trip id="veh141" depart="1610.95" departLane="best" from="54509010#4" to="-27643478" type="passenger"/>
    <trip id="veh142" depart="1622.37" departLane="best" from="11722673#2" to="-468563989" type="passenger"/>
    <trip id="veh143" depart="1633.80" departLane="best" from="54509012#1" to="11699690#4" type="passenger"/>
    <trip id="veh144" depart="1645.22" departLane="best" from="468563989" to="-11742093#0" type="passenger"/>
    <trip id="veh145" depart="1656.65" departLane="best" from="54509010#5" to="-11823485#0" type="passenger"/>
    <trip id="veh146" depart="1668.07" departLane="best" from="54509010#3" to="-11965026#0" type="passenger"/>
    <trip id="veh147" depart="1679.50" departLane="best" from="-11699690#8" to="-54509012#1" type="passenger"/>
    <trip id="veh149" depart="1702.35" departLane="best" from="-315560677#1" to="11702104" type="passenger"/>
    <trip id="veh150" depart="1713.77" departLane="best" from="-11657438#0" to="54509010#3" type="passenger"/>
    <trip id="veh151" depart="1725.20" departLane="best" from="-54509012#9" to="11949119" type="passenger"/>
    <trip id="veh152" depart="1736.62" departLane="best" from="-299405884" to="-11699690#4" type="passenger"/>
    <trip id="veh153" depart="1748.05" departLane="best" from="11742093#1" to="-318681921#1" type="passenger"/>
    <trip id="veh154" depart="1759.48" departLane="best" from="11822004#1" to="-313329257#0" type="passenger"/>
    <trip id="veh155" depart="1770.90" departLane="best" from="468563989" to="11823485#3" type="passenger"/>
    <trip id="veh156" depart="1782.33" departLane="best" from="318681923" to="11734289#1" type="passenger"/>
    <trip id="veh157" depart="1793.75" departLane="best" from="-11965026#0" to="11699690#8" type="passenger"/>
    <trip id="veh158" depart="1805.18" departLane="best" from="-11657438#0" to="-294779091#1" type="passenger"/>
    <trip id="veh159" depart="1816.60" departLane="best" from="-318681921#5" to="11702104" type="passenger"/>
    <trip id="veh160" depart="1828.03" departLane="best" from="11734289#1" to="11657438#2" type="passenger"/>
    <trip id="veh161" depart="1839.45" departLane="best" from="-322188335" to="-11851716" type="passenger"/>
    <trip id="veh162" depart="1850.88" departLane="best" from="-54509010#3" to="366700511#0" type="passenger"/>
    <trip id="veh163" depart="1862.30" departLane="best" from="11963734#0" to="-11822004#0" type="passenger"/>
    <trip id="veh164" depart="1873.73" departLane="best" from="11722673#0" to="-318681921#2" type="passenger"/>
    <trip id="veh166" depart="1896.58" departLane="best" from="313329257#0" to="-11699690#6" type="passenger"/>
    <trip id="veh167" depart="1908.00" departLane="best" from="-318681921#3" to="11742093#2" type="passenger"/>
    <trip id="veh168" depart="1919.43" departLane="best" from="-11810524" to="11830624#1" type="passenger"/>
    <trip id="veh169" depart="1930.85" departLane="best" from="-54509010#8" to="-11963734#0" type="passenger"/>
    <trip id="veh170" depart="1942.28" departLane="best" from="11734289#1" to="-11657438#1" type="passenger"/>
    <trip id="veh172" depart="1965.13" departLane="best" from="-11699690#8" to="-54509010#5" type="passenger"/>
    <trip id="veh173" depart="1976.55" departLane="best" from="-11742093#1" to="54509012#0" type="passenger"/>
    <trip id="veh175" depart="1999.40" departLane="best" from="-11830624#1" to="315560677#1" type="passenger"/>
    <trip id="veh176" depart="2010.83" departLane="best" from="-366700511#1" to="299405884" type="passenger"/>
    <trip id="veh177" depart="2022.25" departLane="best" from="11742093#1" to="54509012#6" type="passenger"/>
    <trip id="veh179" depart="2045.10" departLane="best" from="318681923" to="11734289#0" type="passenger"/>
    <trip id="veh181" depart="2067.95" departLane="best" from="294779091#0" to="11699690#8" type="passenger"/>
    <trip id="veh182" depart="2079.38" departLane="best" from="318681923" to="11963734#1" type="passenger"/>
    <trip id="veh183" depart="2090.80" departLane="best" from="-54509010#3" to="-11963734#2" type="passenger"/>
    <trip id="veh184" depart="2102.23" departLane="best" from="-11830624#1" to="11810524" type="passenger"/>
    <trip id="veh186" depart="2125.08" departLane="best" from="-11699690#1" to="-294779091#1" type="passenger"/>
    <trip id="veh187" depart="2136.51" departLane="best" from="-11949119" to="-313329257#3" type="passenger"/>
    <trip id="veh189" depart="2159.36" departLane="best" from="-11823485#4" to="11830624#0" type="passenger"/>
    <trip id="veh190" depart="2170.78" departLane="best" from="-318681921#1" to="11699690#6" type="passenger"/>
    <trip id="veh191" depart="2182.21" departLane="best" from="-318681921#4" to="366700511#1" type="passenger"/>
    <trip id="veh193" depart="2205.06" departLane="best" from="313329257#1" to="266070271" type="passenger"/>
    <trip id="veh194" depart="2216.48" departLane="best" from="-315560677#0" to="-11657438#1" type="passenger"/>
    <trip id="veh195" depart="2227.91" departLane="best" from="-299405884" to="11965026#0" type="passenger"/>
    <trip id="veh196" depart="2239.33" departLane="best" from="313329257#0" to="54509010#8" type="passenger"/>
    <trip id="veh197" depart="2250.76" departLane="best" from="-318681921#4" to="11963734#2" type="passenger"/>
    <trip id="veh198" depart="2262.18" departLane="best" from="-54509012#9" to="11722673#2" type="passenger"/>
    <trip id="veh199" depart="2273.61" departLane="best" from="-11823485#1" to="-11851716" type="passenger"/>
    <trip id="veh201" depart="2296.46" departLane="best" from="-27643478" to="11823485#3" type="passenger"/>
    <trip id="veh203" depart="2319.31" departLane="best" from="-54509010#1" to="-11742522" type="passenger"/>
    <trip id="veh204" depart="2330.73" departLane="best" from="11699690#7" to="-11685539#0" type="passenger"/>
    <trip id="veh205" depart="2342.16" departLane="best" from="-315560677#1" to="11699690#8" type="passenger"/>
    <trip id="veh206" depart="2353.58" departLane="best" from="-11657438#2" to="11810524" type="passenger"/>
    <trip id="veh207" depart="2365.01" departLane="best" from="-11702104" to="11657438#2" type="passenger"/>
    <trip id="veh209" depart="2387.86" departLane="best" from="-11822004#1" to="-318681921#0" type="passenger"/>
    <trip id="veh210" depart="2399.28" departLane="best" from="11851716" to="-366700511#2" type="passenger"/>
    <trip id="veh211" depart="2410.71" departLane="best" from="11830624#0" to="315560677#0" type="passenger"/>
    <trip id="veh212" depart="2422.13" departLane="best" from="-11830624#2" to="-11707545" type="passenger"/>
    <trip id="veh213" depart="2433.56" departLane="best" from="-11657438#2" to="11699690#6" type="passenger"/>
    <trip id="veh214" depart="2444.98" departLane="best" from="54509012#5" to="-318681923" type="passenger"/>
    <trip id="veh216" depart="2467.84" departLane="best" from="11734289#0" to="11965026#1" type="passenger"/>
    <trip id="veh218" depart="2490.69" departLane="best" from="-11702104" to="11823485#1" type="passenger"/>
    <trip id="veh219" depart="2502.11" departLane="best" from="11685539#0" to="-11851716" type="passenger"/>
    <trip id="veh221" depart="2524.96" departLane="best" from="266070270" to="54509012#1" type="passenger"/>
    <trip id="veh222" depart="2536.39" departLane="best" from="-11699690#8" to="-11685539#0" type="passenger"/>
    <trip id="veh223" depart="2547.81" departLane="best" from="11822004#0" to="-11699690#7" type="passenger"/>
    <trip id="veh226" depart="2582.09" departLane="best" from="313329257#0" to="11722673#1" type="passenger"/>
    <trip id="veh227" depart="2593.51" departLane="best" from="-11702104" to="54509012#6" type="passenger"/>
    <trip id="veh228" depart="2604.94" departLane="best" from="11963734#0" to="-318681923" type="passenger"/>
    <trip id="veh229" depart="2616.36" departLane="best" from="-318681921#5" to="-335532205#0" type="passenger"/>
    <trip id="veh230" depart="2627.79" departLane="best" from="-54509010#8" to="-318681921#4" type="passenger"/>
    <trip id="veh231" depart="2639.21" departLane="best" from="-11699690#8" to="54509012#0" type="passenger"/>
    <trip id="veh232" depart="2650.64" departLane="best" from="11722673#0" to="315560677#0" type="passenger"/>
    <trip id="veh234" depart="2673.49" departLane="best" from="-11949119" to="299405884" type="passenger"/>
    <trip id="veh235" depart="2684.91" departLane="best" from="-54509012#9" to="11685539#1" type="passenger"/>
    <trip id="veh236" depart="2696.34" departLane="best" from="-318681921#5" to="11949119" type="passenger"/>
    <trip id="veh237" depart="2707.76" departLane="best" from="-11830624#2" to="318681921#0" type="passenger"/>
    <trip id="veh238" depart="2719.19" departLane="best" from="294779091#0" to="-11722673#0" type="passenger"/>
    <trip id="veh239" depart="2730.61" departLane="best" from="318681921#2" to="-11963734#0" type="passenger"/>
    <trip id="veh240" depart="2742.04" departLane="best" from="-54509010#0" to="11734289#0" type="passenger"/>
    <trip id="veh242" depart="2764.89" departLane="best" from="313329257#0" to="-11823485#1" type="passenger"/>
    <trip id="veh243" depart="2776.31" departLane="best" from="-11822004#1" to="299405884" type="passenger"/>
    <trip id="veh244" depart="2787.74" departLane="best" from="-294779091#0" to="318681921#5" type="passenger"/>
    <trip id="veh246" depart="2810.59" departLane="best" from="-11699690#3" to="11949119" type="passenger"/>
    <trip id="veh247" depart="2822.02" departLane="best" from="-54509010#8" to="266070270" type="passenger"/>
    <trip id="veh249" depart="2844.87" departLane="best" from="-54509010#8" to="294779091#0" type="passenger"/>
    <trip id="veh250" depart="2856.29" departLane="best" from="-11699690#6" to="-11851716" type="passenger"/>
    <trip id="veh253" depart="2890.57" departLane="best" from="11828372#0" to="-318681921#1" type="passenger"/>
    <trip id="veh255" depart="2913.42" departLane="best" from="-11830624#2" to="-11742093#1" type="passenger"/>
    <trip id="veh256" depart="2924.84" departLane="best" from="-11810524" to="-11742093#1" type="passenger"/>
    <trip id="veh257" depart="2936.27" departLane="best" from="-54509012#9" to="266070271" type="passenger"/>
    <trip id="veh258" depart="2947.69" departLane="best" from="-11742522" to="-11851716" type="passenger"/>
    <trip id="veh259" depart="2959.12" departLane="best" from="54509012#0" to="11699690#1" type="passenger"/>
    <trip id="veh260" depart="2970.54" departLane="best" from="-11949119" to="-11722673#3" type="passenger"/>
    <trip id="veh261" depart="2981.97" departLane="best" from="-11810524" to="-11851716" type="passenger"/>
    <trip id="veh262" depart="2993.39" departLane="best" from="-11742093#1" to="-11685539#0" type="passenger"/>
    <trip id="veh263" depart="3004.82" departLane="best" from="-54509012#9" to="-267171460" type="passenger"/>
    <trip id="veh264" depart="3016.24" departLane="best" from="54509010#6" to="11699690#8" type="passenger"/>
    <trip id="veh265" depart="3027.67" departLane="best" from="315560677#0" to="11685539#1" type="passenger"/>
    <trip id="veh266" depart="3039.09" departLane="best" from="318681921#0" to="11702104" type="passenger"/>
    <trip id="veh267" depart="3050.52" departLane="best" from="-54509010#2" to="-54509012#2" type="passenger"/>
    <trip id="veh268" depart="3061.94" departLane="best" from="468563989" to="11657438#2" type="passenger"/>
    <trip id="veh269" depart="3073.37" departLane="best" from="266070271" to="-468563989" type="passenger"/>
    <trip id="veh270" depart="3084.79" departLane="best" from="-11699690#0" to="11742093#2" type="passenger"/>
    <trip id="veh271" depart="3096.22" departLane="best" from="-11690395#3" to="-11812897" type="passenger"/>
    <trip id="veh272" depart="3107.64" departLane="best" from="11685539#0" to="-313329257#0" type="passenger"/>
    <trip id="veh273" depart="3119.07" departLane="best" from="11851716" to="11722673#3" type="passenger"/>
    <trip id="veh274" depart="3130.49" departLane="best" from="11963734#0" to="-11851716" type="passenger"/>
    <trip id="veh275" depart="3141.92" departLane="best" from="-322188335" to="318681921#2" type="passenger"/>
    <trip id="veh276" depart="3153.35" departLane="best" from="54509012#3" to="-313329257#0" type="passenger"/>
    <trip id="veh277" depart="3164.77" departLane="best" from="11699690#6" to="11734289#0" type="passenger"/>
    <trip id="veh278" depart="3176.20" departLane="best" from="11823485#4" to="54509010#8" type="passenger"/>
    <trip id="veh279" depart="3187.62" departLane="best" from="-11822004#0" to="-11851716" type="passenger"/>
    <trip id="veh281" depart="3210.47" departLane="best" from="-11742093#0" to="-11699690#7" type="passenger"/>
    <trip id="veh282" depart="3221.90" departLane="best" from="-11657438#0" to="-54509012#5" type="passenger"/>
    <trip id="veh284" depart="3244.75" departLane="best" from="-11823485#4" to="11830624#2" type="passenger"/>
    <trip id="veh287" depart="3279.02" departLane="best" from="11963734#0" to="11742093#1" type="passenger"/>
    <trip id="veh288" depart="3290.45" departLane="best" from="11742093#0" to="54509010#6" type="passenger"/>
    <trip id="veh289" depart="3301.87" departLane="best" from="-318681921#5" to="11699690#7" type="passenger"/>
    <trip id="veh290" depart="3313.30" departLane="best" from="11722673#3" to="366700511#2" type="passenger"/>
    <trip id="veh291" depart="3324.72" departLane="best" from="27643478" to="-11699690#6" type="passenger"/>
    <trip id="veh292" depart="3336.15" departLane="best" from="-11734289#1" to="-313329257#0" type="passenger"/>
    <trip id="veh293" depart="3347.57" departLane="best" from="-11949119" to="-11742093#2" type="passenger"/>
    <trip id="veh296" depart="3381.85" departLane="best" from="-54509010#8" to="-11707545" type="passenger"/>
    <trip id="veh297" depart="3393.27" departLane="best" from="-11685539#1" to="-54509012#0" type="passenger"/>
    <trip id="veh298" depart="3404.70" departLane="best" from="-267171458" to="-11963734#0" type="passenger"/>
    <trip id="veh299" depart="3416.12" departLane="best" from="-11699690#6" to="54509012#1" type="passenger"/>
    <trip id="veh300" depart="3427.55" departLane="best" from="313329257#0" to="11702104" type="passenger"/>
    <trip id="veh301" depart="3438.97" departLane="best" from="54509010#0" to="54509012#6" type="passenger"/>
    <trip id="veh303" depart="3461.82" departLane="best" from="-11685539#1" to="11965026#1" type="passenger"/>
    <trip id="veh304" depart="3473.25" departLane="best" from="-54509010#2" to="11810524" type="passenger"/>
    <trip id="veh305" depart="3484.67" departLane="best" from="335532205#0" to="-11823485#1" type="passenger"/>
    <trip id="veh306" depart="3496.10" departLane="best" from="-54509010#8" to="-11722673#1" type="passenger"/>
    <trip id="veh307" depart="3507.53" departLane="best" from="-299405884" to="-318681921#2" type="passenger"/>
    <trip id="veh308" depart="3518.95" departLane="best" from="11742093#2" to="318681921#1" type="passenger"/>
    <trip id="veh309" depart="3530.38" departLane="best" from="-267171458" to="11830624#0" type="passenger"/>
    <trip id="veh310" depart="3541.80" departLane="best" from="11965026#1" to="11699690#8" type="passenger"/>
    <trip id="veh311" depart="3553.23" departLane="best" from="-267171458" to="54509012#3" type="passenger"/>
    <trip id="veh313" depart="3576.08" departLane="best" from="54509012#2" to="11822004#0" type="passenger"/>
    <trip id="veh314" depart="3587.50" departLane="best" from="-54509012#9" to="-54509010#2" type="passenger"/>
    <trip id="veh315" depart="3598.93" departLane="best" from="11830624#1" to="11742093#1" type="passenger"/>
</routes>
