<?xml version="1.0" encoding="UTF-8"?>

<!-- generated on 02/13/18 15:58:26 by SUMO polyconvert Version 0.31.0
<?xml version="1.0" encoding="UTF-8"?>

<configuration xmlns:xsi="http://www.w3.org/2001/XMLSchema-instance" xsi:noNamespaceSchemaLocation="http://sumo.dlr.de/xsd/polyconvertConfiguration.xsd">

    <input>
        <net-file value="C:\Users\Rusheng\Sumo\2018-02-13-15-58-17\osm.net.xml"/>
        <osm-files value="osm_bbox.osm.xml"/>
        <osm.keep-full-type value="true"/>
        <type-file value="C:\Program%20Files%20(x86)\DLR\Sumo\data\typemap\osmPolyconvert.typ.xml"/>
    </input>

    <output>
        <output-file value="C:\Users\Rusheng\Sumo\2018-02-13-15-58-17\osm.poly.xml"/>
    </output>

    <processing>
        <poi-layer-offset value="5"/>
    </processing>

    <report>
        <verbose value="true"/>
    </report>

</configuration>
-->

<additional xmlns:xsi="http://www.w3.org/2001/XMLSchema-instance" xsi:noNamespaceSchemaLocation="http://sumo.dlr.de/xsd/additional_file.xsd">
    <location netOffset="-589724.28,-4476884.34" convBoundary="-660.13,-1067.00,2526.01,1102.45" origBoundary="-79.949854,40.428221,-79.912222,40.447585" projParameter="+proj=utm +zone=17 +ellps=WGS84 +datum=WGS84 +units=m +no_defs"/>

    <poly id="154817164" type="building.yes" color="255,230,230" fill="1" layer="-1.00" shape="1203.39,694.33 1203.56,668.89 1218.94,669.00 1218.91,674.19 1234.55,674.29 1234.16,677.97 1234.40,694.54 1203.39,694.33"/>
    <poly id="154817165" type="building.commercial" color="255,230,230" fill="1" layer="-1.00" shape="1232.77,700.17 1234.40,694.54 1234.16,677.97 1263.51,677.54 1263.65,686.33 1263.93,699.50 1232.77,700.17"/>
    <poly id="154817167" type="building.school" color="255,230,230" fill="1" layer="-1.00" shape="1274.32,572.53 1273.77,554.98 1273.52,548.29 1314.50,546.94 1315.31,571.18 1274.32,572.53"/>
    <poly id="245012830" type="leisure.pitch" color="207,245,201" fill="1" layer="-2.00" shape="1219.24,638.74 1222.70,636.62 1226.82,634.74 1232.39,633.83 1238.16,634.22 1242.90,636.50 1245.19,638.33 1246.85,640.52 1248.22,643.01 1249.12,645.30 1248.94,651.37 1247.86,654.97 1245.63,658.30 1243.19,660.93 1241.14,662.56 1222.16,663.21 1217.99,659.73 1219.24,638.74"/>
    <poly id="245012830#1" type="sport.baseball" color="79,230,125" fill="1" layer="-2.00" shape="1219.24,638.74 1222.70,636.62 1226.82,634.74 1232.39,633.83 1238.16,634.22 1242.90,636.50 1245.19,638.33 1246.85,640.52 1248.22,643.01 1249.12,645.30 1248.94,651.37 1247.86,654.97 1245.63,658.30 1243.19,660.93 1241.14,662.56 1222.16,663.21 1217.99,659.73 1219.24,638.74"/>
    <poly id="25795401" type="amenity.university" color="237,199,199" fill="1" layer="-1.00" shape="-120.36,1053.43 -46.21,1061.57 -39.79,1012.33 -33.22,933.70 -32.29,916.32 22.28,919.15 50.13,903.53 69.35,879.10 46.74,821.54 87.74,802.45 291.30,765.01 270.61,669.04 383.76,522.47 348.20,497.15 373.45,456.12 292.66,409.69 299.46,388.74 220.01,336.30 163.72,416.11 145.64,406.47 101.84,415.37 67.72,286.60 -114.18,338.09 -422.32,414.18 -452.18,415.27 -478.48,422.22 -462.39,484.08 -443.85,555.43 -438.63,575.49 -392.36,754.52 -513.67,747.74 -515.01,782.92 -314.71,802.48 -238.48,931.25 -189.41,906.45 -156.19,928.61 -145.77,930.16 -116.02,934.56 -102.96,937.62 -104.11,954.31 -104.72,962.98 -116.71,962.82 -120.36,1053.43"/>
    <poly id="258075469" type="amenity.parking" color="184,184,179" fill="1" layer="-1.00" shape="1234.55,674.29 1234.38,668.81 1279.77,667.33 1279.29,701.61 1266.45,701.39 1266.86,686.29 1263.65,686.33 1263.51,677.54 1234.16,677.97 1234.55,674.29"/>
    <poly id="258172015" type="leisure.park" color="207,245,201" fill="1" layer="-2.00" shape="1331.99,665.62 1279.77,667.33 1234.38,668.81 1218.94,669.00 1203.56,668.89 1203.40,669.82 1196.94,669.99 1198.44,617.63 1199.29,595.83 1257.27,594.41 1296.01,593.20 1335.25,591.99 1334.96,599.58 1333.72,627.28 1333.09,641.08 1331.99,665.62"/>
    <poly id="258174204" type="amenity.school" color="237,199,199" fill="1" layer="-1.00" shape="1257.27,594.41 1257.61,585.35 1257.81,554.67 1258.50,541.21 1314.20,542.24 1335.81,542.65 1331.22,570.93 1327.77,592.22 1296.01,593.20 1257.27,594.41"/>
    <poly id="258174204#1" type="building.no" color="255,230,230" fill="1" layer="-1.00" shape="1257.27,594.41 1257.61,585.35 1257.81,554.67 1258.50,541.21 1314.20,542.24 1335.81,542.65 1331.22,570.93 1327.77,592.22 1296.01,593.20 1257.27,594.41"/>
    <poly id="258174205" type="amenity.parking" color="184,184,179" fill="1" layer="-1.00" shape="1273.77,554.98 1257.81,554.67 1257.61,585.35 1270.12,585.44 1270.17,578.81 1274.27,578.84 1274.32,572.53 1273.77,554.98"/>
    <poly id="258179101" type="amenity.parking" color="184,184,179" fill="1" layer="-1.00" shape="1203.39,694.33 1196.10,694.30 1195.28,717.53 1231.41,715.70 1232.77,700.17 1234.40,694.54 1203.39,694.33"/>
    <poly id="26321001" type="leisure.park" color="207,245,201" fill="1" layer="-2.00" shape="741.00,-336.89 808.92,-293.27 799.87,-267.28 752.80,-288.88 728.19,-240.58 726.66,-230.23 695.33,-76.08 679.68,0.56 741.44,1.92 754.84,4.80 768.47,12.56 760.00,19.36 752.28,27.66 722.99,67.13 674.81,132.18 647.97,121.88 527.39,152.28 475.19,166.23 402.91,186.09 363.85,204.31 160.88,249.69 109.02,264.30 93.99,266.69 -6.48,295.31 -25.14,302.22 -383.27,395.30 -426.93,408.53 -444.13,405.61 -458.71,393.26 -479.34,372.46 -498.83,354.59 -521.34,329.14 -579.70,364.79 -623.11,310.60 -654.42,236.54 -660.13,139.47 -629.71,-169.65 -641.47,-349.58 -630.77,-759.97 -622.62,-914.72 -607.48,-988.88 -594.68,-1067.00 -422.81,-1017.78 -167.69,-944.73 -80.54,-924.83 -78.14,-882.73 28.95,-826.33 164.64,-846.46 197.04,-877.26 267.41,-915.58 262.80,-956.26 376.87,-979.57 410.25,-986.40 774.65,-892.06 775.41,-773.83 796.50,-651.00 793.97,-630.43 785.20,-559.01 764.88,-475.31 749.00,-358.66 741.00,-336.89"/>
    <poly id="27591503" type="building.yes" color="255,230,230" fill="1" layer="-1.00" shape="373.49,534.70 380.18,523.10 359.99,511.53 353.29,523.14 373.49,534.70"/>
    <poly id="27591602" type="building.yes" color="255,230,230" fill="1" layer="-1.00" shape="342.69,466.13 359.35,475.42 362.08,470.57 355.76,467.05 358.67,461.87 348.33,456.11 342.69,466.13"/>
    <poly id="27592237" type="leisure.golf_course" color="207,245,201" fill="1" layer="-2.00" shape="160.88,249.69 147.45,178.55 137.11,108.75 155.86,103.89 170.91,104.11 168.22,85.98 150.26,65.45 99.00,82.74 82.98,81.81 37.67,104.71 -9.21,128.09 -28.09,124.95 -57.34,73.84 -68.80,53.45 -70.88,49.75 -66.92,22.96 -105.64,-26.82 -140.01,-75.10 -137.02,-81.59 -127.45,-90.90 -111.32,-100.14 -88.10,-93.34 -80.17,-86.71 -68.48,-89.47 -59.05,-87.18 -42.51,-70.31 -27.43,-52.72 -12.28,-40.93 -4.32,-37.21 4.92,-18.24 9.75,4.30 14.80,8.71 27.93,6.69 57.86,-0.21 69.80,14.15 96.21,14.45 106.30,-0.32 106.13,-16.25 105.85,-40.67 100.28,-76.90 109.75,-97.62 130.25,-128.22 231.15,-122.40 239.50,-151.06 239.79,-174.98 237.82,-192.41 229.90,-200.49 229.37,-216.45 233.83,-224.38 250.65,-229.97 255.08,-235.00 260.25,-242.19 279.25,-247.77 314.80,-237.18 355.87,-221.98 375.94,-267.49 399.19,-283.65 422.65,-286.18 445.89,-270.29 477.23,-229.87 504.39,-224.12 528.28,-236.57 590.30,-292.01 612.02,-309.15 626.69,-313.60 648.62,-303.27 670.60,-282.13 687.12,-253.35 712.98,-235.63 726.66,-230.23 695.33,-76.08 679.68,0.56 741.44,1.92 754.84,4.80 768.47,12.56 760.00,19.36 752.28,27.66 722.99,67.13 674.81,132.18 647.97,121.88 527.39,152.28 475.19,166.23 402.91,186.09 363.85,204.31 286.03,224.73 160.88,249.69"/>
    <poly id="27592237#1" type="sport.golf" color="79,230,125" fill="1" layer="-2.00" shape="160.88,249.69 147.45,178.55 137.11,108.75 155.86,103.89 170.91,104.11 168.22,85.98 150.26,65.45 99.00,82.74 82.98,81.81 37.67,104.71 -9.21,128.09 -28.09,124.95 -57.34,73.84 -68.80,53.45 -70.88,49.75 -66.92,22.96 -105.64,-26.82 -140.01,-75.10 -137.02,-81.59 -127.45,-90.90 -111.32,-100.14 -88.10,-93.34 -80.17,-86.71 -68.48,-89.47 -59.05,-87.18 -42.51,-70.31 -27.43,-52.72 -12.28,-40.93 -4.32,-37.21 4.92,-18.24 9.75,4.30 14.80,8.71 27.93,6.69 57.86,-0.21 69.80,14.15 96.21,14.45 106.30,-0.32 106.13,-16.25 105.85,-40.67 100.28,-76.90 109.75,-97.62 130.25,-128.22 231.15,-122.40 239.50,-151.06 239.79,-174.98 237.82,-192.41 229.90,-200.49 229.37,-216.45 233.83,-224.38 250.65,-229.97 255.08,-235.00 260.25,-242.19 279.25,-247.77 314.80,-237.18 355.87,-221.98 375.94,-267.49 399.19,-283.65 422.65,-286.18 445.89,-270.29 477.23,-229.87 504.39,-224.12 528.28,-236.57 590.30,-292.01 612.02,-309.15 626.69,-313.60 648.62,-303.27 670.60,-282.13 687.12,-253.35 712.98,-235.63 726.66,-230.23 695.33,-76.08 679.68,0.56 741.44,1.92 754.84,4.80 768.47,12.56 760.00,19.36 752.28,27.66 722.99,67.13 674.81,132.18 647.97,121.88 527.39,152.28 475.19,166.23 402.91,186.09 363.85,204.31 286.03,224.73 160.88,249.69"/>
    <poly id="27643470" type="building.yes" color="255,230,230" fill="1" layer="-1.00" shape="355.31,436.95 360.34,428.16 373.10,435.40 369.60,441.51 362.64,437.56 361.12,440.24 355.31,436.95"/>
    <poly id="359652187" type="amenity.parking" color="184,184,179" fill="1" layer="-1.00" shape="658.01,32.74 659.41,19.56 701.38,21.44 710.85,26.64 713.53,33.56 709.51,46.44 684.63,81.63 673.01,95.11 659.28,99.49 621.27,101.78 599.40,105.52 579.10,115.72 565.77,121.90 564.83,119.95 594.43,105.31 606.77,101.06 639.16,95.12 628.32,89.62 643.53,77.15 654.41,56.78 656.65,42.64 658.01,32.74"/>
    <poly id="534345335" type="building.yes" color="255,230,230" fill="1" layer="-1.00" shape="1183.72,760.22 1180.32,754.34 1179.25,754.95 1175.65,748.74 1162.60,756.25 1165.96,762.06 1168.83,760.41 1172.48,766.69 1183.72,760.22"/>
    <poly id="534345336" type="building.yes" color="255,230,230" fill="1" layer="-1.00" shape="1169.48,792.58 1180.63,786.79 1174.32,774.71 1159.18,782.56 1162.87,789.61 1166.85,787.55 1169.48,792.58"/>
    <poly id="534345337" type="building.yes" color="255,230,230" fill="1" layer="-1.00" shape="1159.59,799.14 1164.26,796.20 1161.20,791.38 1156.53,794.33 1159.59,799.14"/>
    <poly id="534345338" type="building.yes" color="255,230,230" fill="1" layer="-1.00" shape="1156.23,801.45 1151.05,804.26 1148.22,799.10 1153.25,796.51 1156.23,801.45"/>
    <poly id="534345340" type="building.yes" color="255,230,230" fill="1" layer="-1.00" shape="1131.92,781.90 1137.41,790.99 1127.63,796.84 1122.14,787.75 1131.92,781.90"/>
    <poly id="534345341" type="building.yes" color="255,230,230" fill="1" layer="-1.00" shape="1116.93,807.81 1124.73,803.20 1116.86,789.98 1109.06,794.59 1116.93,807.81"/>
    <poly id="534345342" type="building.yes" color="255,230,230" fill="1" layer="-1.00" shape="1102.72,812.44 1109.00,808.73 1102.09,797.12 1095.81,800.83 1102.72,812.44"/>
    <poly id="544173467" type="building.yes" color="255,230,230" fill="1" layer="-1.00" shape="903.88,162.16 901.90,169.24 909.66,171.42 911.64,164.34 903.88,162.16"/>
    <poly id="544173470" type="building.yes" color="255,230,230" fill="1" layer="-1.00" shape="725.79,177.87 720.42,190.42 731.21,195.03 736.57,182.49 725.79,177.87"/>
    <poly id="544173472" type="building.residential" color="255,230,230" fill="1" layer="-1.00" shape="922.45,163.22 920.72,171.38 926.78,172.67 928.50,164.52 922.45,163.22"/>
    <poly id="544173474" type="building.yes" color="255,230,230" fill="1" layer="-1.00" shape="769.35,142.29 766.02,150.07 776.63,154.63 779.98,146.85 769.35,142.29"/>
    <poly id="544173475" type="building.yes" color="255,230,230" fill="1" layer="-1.00" shape="644.62,142.42 630.79,146.05 633.38,155.95 647.22,152.31 644.62,142.42"/>
    <poly id="544173476" type="building.yes" color="255,230,230" fill="1" layer="-1.00" shape="832.68,152.42 830.57,158.09 837.44,160.64 839.54,154.97 832.68,152.42"/>
    <poly id="544173477" type="building.yes" color="255,230,230" fill="1" layer="-1.00" shape="626.61,144.60 615.30,147.57 619.10,162.04 630.41,159.06 626.61,144.60"/>
    <poly id="544173478" type="building.yes" color="255,230,230" fill="1" layer="-1.00" shape="936.68,152.83 934.62,159.91 945.06,162.93 947.11,155.86 936.68,152.83"/>
    <poly id="544173479" type="building.yes" color="255,230,230" fill="1" layer="-1.00" shape="854.78,160.41 852.80,165.89 866.34,170.80 868.33,165.33 854.78,160.41"/>
    <poly id="544173480" type="building.residential" color="255,230,230" fill="1" layer="-1.00" shape="1171.80,149.56 1169.74,156.82 1154.61,152.59 1152.97,158.37 1156.47,159.33 1153.37,168.78 1173.65,174.54 1177.93,159.44 1177.21,159.23 1179.35,151.71 1171.80,149.56"/>
    <poly id="544173481" type="building.yes" color="255,230,230" fill="1" layer="-1.00" shape="484.60,511.41 475.08,524.13 481.93,529.27 491.45,516.54 484.60,511.41"/>
    <poly id="544173482" type="building.yes" color="255,230,230" fill="1" layer="-1.00" shape="881.03,530.63 878.04,537.51 883.26,539.77 883.13,540.05 889.01,542.60 892.11,535.43 881.03,530.63"/>
    <poly id="544173483" type="building.yes" color="255,230,230" fill="1" layer="-1.00" shape="658.51,525.64 656.70,529.79 651.80,527.64 649.44,533.02 663.90,539.35 668.07,529.83 658.51,525.64"/>
    <poly id="544173484" type="building.yes" color="255,230,230" fill="1" layer="-1.00" shape="832.20,508.86 828.40,517.65 837.30,521.50 836.08,524.34 841.27,526.59 842.19,524.44 852.77,529.02 851.87,531.12 849.84,530.24 845.99,539.13 853.37,542.32 859.65,527.82 854.31,525.51 855.10,523.70 841.16,517.67 842.95,513.52 832.20,508.86"/>
    <poly id="544173485" type="building.yes" color="255,230,230" fill="1" layer="-1.00" shape="531.92,513.38 528.61,521.09 537.36,524.85 538.17,522.96 549.58,527.87 552.89,520.19 542.58,515.74 541.76,517.62 531.92,513.38"/>
    <poly id="544173486" type="building.yes" color="255,230,230" fill="1" layer="-1.00" shape="994.24,542.57 984.55,542.95 984.94,552.72 996.02,552.27 995.96,550.84 996.96,550.81 996.80,546.78 994.42,546.88 994.24,542.57"/>
    <poly id="544173487" type="building.yes" color="255,230,230" fill="1" layer="-1.00" shape="1046.18,544.66 1038.98,545.00 1039.43,554.74 1050.59,554.21 1050.23,546.71 1046.28,546.90 1046.18,544.66"/>
    <poly id="544173488" type="building.residential" color="255,230,230" fill="1" layer="-1.00" shape="715.89,518.59 713.71,523.92 715.60,524.69 712.65,531.94 723.03,536.17 724.71,532.06 722.31,531.08 725.76,522.61 715.89,518.59"/>
    <poly id="544173489" type="building.yes" color="255,230,230" fill="1" layer="-1.00" shape="620.32,521.46 617.81,527.20 623.18,529.55 625.69,523.82 620.32,521.46"/>
    <poly id="544173490" type="building.yes" color="255,230,230" fill="1" layer="-1.00" shape="597.15,521.65 594.69,527.29 591.84,526.05 590.58,528.93 602.52,534.16 606.26,525.64 597.15,521.65"/>
    <poly id="544173491" type="building.yes" color="255,230,230" fill="1" layer="-1.00" shape="422.79,512.77 416.64,521.22 428.27,529.69 434.42,521.23 422.79,512.77"/>
    <poly id="544173492" type="building.yes" color="255,230,230" fill="1" layer="-1.00" shape="495.49,517.42 487.94,527.51 494.00,532.04 501.55,521.95 495.49,517.42"/>
    <poly id="544173493" type="building.yes" color="255,230,230" fill="1" layer="-1.00" shape="1016.12,546.80 1010.60,547.02 1010.78,551.69 1016.31,551.46 1016.12,546.80"/>
    <poly id="544173494" type="building.yes" color="255,230,230" fill="1" layer="-1.00" shape="778.65,512.27 768.82,535.44 775.84,538.42 780.84,526.61 780.06,526.28 784.88,514.91 778.65,512.27"/>
    <poly id="544173495" type="building.yes" color="255,230,230" fill="1" layer="-1.00" shape="856.70,536.50 854.30,542.12 859.63,544.40 862.04,538.79 856.70,536.50"/>
    <poly id="544173500" type="building.yes" color="255,230,230" fill="1" layer="-1.00" shape="992.34,108.58 988.91,120.66 997.25,123.02 1000.68,110.94 992.34,108.58"/>
    <poly id="544173501" type="building.yes" color="255,230,230" fill="1" layer="-1.00" shape="820.82,137.15 818.55,143.44 825.88,146.07 828.13,139.79 820.82,137.15"/>
    <poly id="544173502" type="building.yes" color="255,230,230" fill="1" layer="-1.00" shape="1111.48,141.51 1107.21,156.53 1123.04,161.03 1127.76,144.40 1124.02,143.33 1123.57,144.94 1111.48,141.51"/>
    <poly id="544173503" type="building.residential" color="255,230,230" fill="1" layer="-1.00" shape="761.88,100.05 758.57,111.25 771.57,115.09 774.88,103.88 761.88,100.05"/>
    <poly id="544173504" type="building.yes" color="255,230,230" fill="1" layer="-1.00" shape="898.55,139.09 894.98,151.47 908.21,155.30 911.79,142.93 898.55,139.09"/>
    <poly id="544173506" type="building.yes" color="255,230,230" fill="1" layer="-1.00" shape="857.34,127.19 853.84,139.26 856.15,139.94 855.50,142.18 863.25,144.42 867.40,130.10 857.34,127.19"/>
    <poly id="544173509" type="building.yes" color="255,230,230" fill="1" layer="-1.00" shape="718.12,109.46 715.48,115.82 721.44,118.29 724.07,111.94 718.12,109.46"/>
    <poly id="544173517" type="building.yes" color="255,230,230" fill="1" layer="-1.00" shape="978.67,103.21 974.64,117.39 983.65,119.95 987.69,105.77 978.67,103.21"/>
    <poly id="544173520" type="building.yes" color="255,230,230" fill="1" layer="-1.00" shape="560.42,603.58 557.21,610.92 568.45,615.84 571.66,608.50 560.42,603.58"/>
    <poly id="544173521" type="building.yes" color="255,230,230" fill="1" layer="-1.00" shape="739.18,128.09 735.10,137.61 743.86,141.36 747.95,131.86 739.18,128.09"/>
    <poly id="544173522" type="building.yes" color="255,230,230" fill="1" layer="-1.00" shape="431.91,585.56 425.75,593.86 432.28,598.71 438.45,590.42 431.91,585.56"/>
    <poly id="544173523" type="building.residential" color="255,230,230" fill="1" layer="-1.00" shape="753.95,133.97 750.40,142.11 760.67,146.57 760.73,146.42 764.07,138.37 753.95,133.97"/>
    <poly id="544173524" type="building.yes" color="255,230,230" fill="1" layer="-1.00" shape="1175.36,612.41 1175.25,615.26 1169.91,615.05 1169.70,620.63 1174.30,620.81 1174.25,622.18 1185.02,622.60 1185.40,612.81 1175.36,612.41"/>
    <poly id="544173525" type="building.yes" color="255,230,230" fill="1" layer="-1.00" shape="999.94,610.93 988.37,611.40 988.72,620.03 1000.28,619.57 999.94,610.93"/>
    <poly id="544173527" type="building.yes" color="255,230,230" fill="1" layer="-1.00" shape="1174.79,625.78 1174.74,626.87 1169.76,626.67 1169.48,633.75 1173.70,633.92 1173.67,634.83 1184.29,635.24 1184.65,626.16 1174.79,625.78"/>
    <poly id="544173528" type="building.yes" color="255,230,230" fill="1" layer="-1.00" shape="888.85,135.98 885.83,146.42 892.84,148.45 895.86,138.01 888.85,135.98"/>
    <poly id="544173529" type="building.yes" color="255,230,230" fill="1" layer="-1.00" shape="919.84,145.16 916.93,155.22 927.15,158.19 930.06,148.12 919.84,145.16"/>
    <poly id="544173530" type="building.yes" color="255,230,230" fill="1" layer="-1.00" shape="997.64,597.24 987.98,597.64 988.34,606.79 1000.60,606.29 1000.39,601.02 997.79,601.13 997.64,597.24"/>
    <poly id="544173531" type="building.yes" color="255,230,230" fill="1" layer="-1.00" shape="1115.95,627.74 1101.35,628.55 1101.89,638.31 1116.49,637.50 1115.95,627.74"/>
    <poly id="544173532" type="building.yes" color="255,230,230" fill="1" layer="-1.00" shape="1173.90,638.01 1173.83,639.86 1168.86,639.66 1168.57,646.95 1173.30,647.14 1173.23,648.90 1184.04,649.32 1184.47,638.43 1173.90,638.01"/>
    <poly id="544173533" type="building.yes" color="255,230,230" fill="1" layer="-1.00" shape="364.37,590.49 357.49,599.76 367.11,606.90 373.99,597.62 364.37,590.49"/>
    <poly id="544173534" type="building.yes" color="255,230,230" fill="1" layer="-1.00" shape="1006.19,112.76 1002.49,125.81 1013.19,128.85 1016.90,115.80 1006.19,112.76"/>
    <poly id="544173535" type="building.yes" color="255,230,230" fill="1" layer="-1.00" shape="778.25,642.77 773.50,653.89 783.57,658.20 786.14,652.20 789.30,653.55 791.49,648.43 778.25,642.77"/>
    <poly id="544173539" type="building.yes" color="255,230,230" fill="1" layer="-1.00" shape="814.89,646.29 812.75,651.23 816.46,652.84 818.60,647.90 814.89,646.29"/>
    <poly id="544173540" type="building.yes" color="255,230,230" fill="1" layer="-1.00" shape="688.66,584.14 682.61,598.30 694.64,603.44 698.27,594.94 692.08,592.30 694.50,586.63 688.66,584.14"/>
    <poly id="544173541" type="building.yes" color="255,230,230" fill="1" layer="-1.00" shape="623.28,605.66 619.95,613.27 631.25,618.22 634.58,610.61 623.28,605.66"/>
    <poly id="544173542" type="building.yes" color="255,230,230" fill="1" layer="-1.00" shape="902.95,617.20 899.54,625.19 901.80,626.16 899.65,631.19 916.68,638.45 919.76,631.23 913.79,628.68 916.26,622.88 902.95,617.20"/>
    <poly id="544173543" type="building.yes" color="255,230,230" fill="1" layer="-1.00" shape="873.73,129.21 869.19,144.91 882.44,148.75 884.73,140.85 882.80,140.29 885.06,132.49 873.73,129.21"/>
    <poly id="544173544" type="building.yes" color="255,230,230" fill="1" layer="-1.00" shape="779.77,104.03 776.42,115.61 787.99,118.96 791.34,107.38 779.77,104.03"/>
    <poly id="544173545" type="building.yes" color="255,230,230" fill="1" layer="-1.00" shape="838.83,589.04 834.18,599.99 845.07,604.61 842.78,610.00 849.58,612.89 850.28,611.24 854.00,612.81 855.71,608.77 851.13,606.83 853.33,601.65 843.68,597.56 846.01,592.09 838.83,589.04"/>
    <poly id="544173546" type="building.yes" color="255,230,230" fill="1" layer="-1.00" shape="653.46,664.29 649.43,673.72 659.76,678.12 663.78,668.69 653.46,664.29"/>
    <poly id="544173547" type="building.yes" color="255,230,230" fill="1" layer="-1.00" shape="971.89,166.31 968.45,178.35 979.22,181.42 982.66,169.40 971.89,166.31"/>
    <poly id="544173548" type="building.yes" color="255,230,230" fill="1" layer="-1.00" shape="697.04,626.01 694.49,631.99 700.51,634.56 703.06,628.58 697.04,626.01"/>
    <poly id="544173549" type="building.yes" color="255,230,230" fill="1" layer="-1.00" shape="476.57,602.82 472.71,607.70 470.64,606.07 468.10,609.28 470.17,610.91 468.43,613.11 466.01,611.21 461.05,617.47 474.49,628.10 482.95,617.40 485.69,619.57 490.33,613.70 476.57,602.82"/>
    <poly id="544173550" type="building.yes" color="255,230,230" fill="1" layer="-1.00" shape="705.85,606.81 703.12,613.21 708.12,615.35 710.85,608.94 705.85,606.81"/>
    <poly id="544173551" type="building.yes" color="255,230,230" fill="1" layer="-1.00" shape="1060.98,636.53 1041.79,637.43 1042.05,642.87 1049.98,642.50 1050.22,647.42 1057.95,647.04 1057.67,641.00 1061.18,640.84 1060.98,636.53"/>
    <poly id="544173552" type="building.yes" color="255,230,230" fill="1" layer="-1.00" shape="584.48,618.25 582.02,623.98 587.93,626.52 590.39,620.78 584.48,618.25"/>
    <poly id="544173553" type="building.yes" color="255,230,230" fill="1" layer="-1.00" shape="970.01,317.84 968.69,320.92 963.08,318.52 960.22,325.22 974.06,331.14 975.07,328.76 979.92,330.83 983.08,323.44 970.01,317.84"/>
    <poly id="544173554" type="building.yes" color="255,230,230" fill="1" layer="-1.00" shape="581.98,624.88 579.57,630.70 585.23,633.04 587.63,627.23 581.98,624.88"/>
    <poly id="544173555" type="building.yes" color="255,230,230" fill="1" layer="-1.00" shape="997.50,636.91 987.91,637.29 988.05,640.92 986.25,641.00 986.45,645.83 1000.95,645.25 1000.71,639.37 997.60,639.50 997.50,636.91"/>
    <poly id="544173556" type="building.yes" color="255,230,230" fill="1" layer="-1.00" shape="1118.12,615.38 1099.67,616.39 1100.22,626.39 1115.29,625.88 1115.14,621.42 1118.14,621.41 1118.12,615.38"/>
    <poly id="544173557" type="building.yes" color="255,230,230" fill="1" layer="-1.00" shape="1167.38,676.79 1167.19,681.74 1171.16,681.90 1171.09,683.64 1182.43,684.08 1182.69,677.39 1167.38,676.79"/>
    <poly id="544173558" type="building.yes" color="255,230,230" fill="1" layer="-1.00" shape="1148.24,665.68 1143.79,665.90 1144.07,671.44 1148.53,671.20 1148.24,665.68"/>
    <poly id="544173559" type="building.yes" color="255,230,230" fill="1" layer="-1.00" shape="1148.41,579.11 1146.50,608.62 1151.73,608.96 1153.64,579.45 1148.41,579.11"/>
    <poly id="544173560" type="building.yes" color="255,230,230" fill="1" layer="-1.00" shape="590.54,606.27 587.51,613.22 593.28,615.76 596.32,608.80 590.54,606.27"/>
    <poly id="544173561" type="building.yes" color="255,230,230" fill="1" layer="-1.00" shape="824.53,641.43 821.47,648.49 838.80,655.99 841.86,648.94 824.53,641.43"/>
    <poly id="544173562" type="building.residential" color="255,230,230" fill="1" layer="-1.00" shape="741.20,602.09 739.03,606.98 733.35,604.47 732.21,607.06 725.54,604.11 721.92,612.30 742.38,621.36 749.32,605.67 741.20,602.09"/>
    <poly id="544173563" type="building.yes" color="255,230,230" fill="1" layer="-1.00" shape="1152.16,613.15 1145.19,612.99 1145.05,618.73 1152.02,618.89 1152.16,613.15"/>
    <poly id="544173564" type="building.yes" color="255,230,230" fill="1" layer="-1.00" shape="596.08,591.66 592.85,599.02 598.23,601.38 601.45,594.01 596.08,591.66"/>
    <poly id="544173565" type="building.yes" color="255,230,230" fill="1" layer="-1.00" shape="511.49,593.81 510.08,597.10 505.92,595.32 503.19,601.70 515.45,606.93 517.62,601.85 519.90,602.83 521.86,598.23 511.49,593.81"/>
    <poly id="544173566" type="building.yes" color="255,230,230" fill="1" layer="-1.00" shape="1108.04,605.33 1098.04,605.88 1098.45,613.30 1108.45,612.74 1108.04,605.33"/>
    <poly id="544173567" type="building.yes" color="255,230,230" fill="1" layer="-1.00" shape="625.72,317.12 620.46,329.31 629.72,333.30 634.98,321.12 625.72,317.12"/>
    <poly id="544173568" type="building.yes" color="255,230,230" fill="1" layer="-1.00" shape="374.01,578.48 366.80,588.20 375.87,594.91 383.06,585.19 374.01,578.48"/>
    <poly id="544173569" type="building.yes" color="255,230,230" fill="1" layer="-1.00" shape="566.35,589.26 562.10,598.96 572.81,603.66 577.07,593.95 566.35,589.26"/>
    <poly id="544173570" type="building.yes" color="255,230,230" fill="1" layer="-1.00" shape="1056.48,611.53 1048.03,611.93 1048.57,623.38 1061.32,622.78 1060.89,613.46 1056.58,613.67 1056.48,611.53"/>
    <poly id="544173571" type="building.yes" color="255,230,230" fill="1" layer="-1.00" shape="1102.97,360.97 1098.66,371.05 1110.81,376.25 1108.32,382.08 1117.44,385.97 1124.24,370.08 1102.97,360.97"/>
    <poly id="544173572" type="building.yes" color="255,230,230" fill="1" layer="-1.00" shape="1005.55,624.93 988.57,625.61 988.93,634.33 1005.91,633.65 1005.55,624.93"/>
    <poly id="544173573" type="building.yes" color="255,230,230" fill="1" layer="-1.00" shape="1061.73,651.19 1050.78,651.70 1051.22,661.14 1062.17,660.62 1061.73,651.19"/>
    <poly id="544173574" type="building.yes" color="255,230,230" fill="1" layer="-1.00" shape="803.85,579.27 802.35,582.81 800.39,581.98 798.41,586.67 801.29,587.88 798.26,595.04 805.79,598.23 808.54,591.76 815.71,594.81 818.28,588.76 811.66,585.96 812.87,583.08 803.85,579.27"/>
    <poly id="544173575" type="building.yes" color="255,230,230" fill="1" layer="-1.00" shape="1059.27,598.77 1048.22,599.29 1048.67,608.97 1059.73,608.45 1059.27,598.77"/>
    <poly id="544173576" type="building.yes" color="255,230,230" fill="1" layer="-1.00" shape="814.87,278.83 810.70,288.52 824.98,294.66 829.15,284.98 814.87,278.83"/>
    <poly id="544173577" type="building.residential" color="255,230,230" fill="1" layer="-1.00" shape="457.31,319.82 449.39,327.79 455.34,333.72 453.68,335.39 458.22,339.89 457.82,340.29 463.97,346.43 463.45,346.94 469.49,352.96 477.59,344.84 471.40,338.68 471.83,338.24 466.07,332.51 466.57,332.01 461.79,327.25 463.26,325.76 457.31,319.82"/>
    <poly id="544173578" type="building.yes" color="255,230,230" fill="1" layer="-1.00" shape="442.85,573.95 440.11,577.62 439.31,577.02 434.89,582.97 445.33,590.73 449.44,585.21 451.20,586.51 454.25,582.42 442.85,573.95"/>
    <poly id="544173579" type="building.yes" color="255,230,230" fill="1" layer="-1.00" shape="1136.24,628.79 1128.46,629.30 1128.72,636.88 1136.73,636.34 1136.24,628.79"/>
    <poly id="544173580" type="building.residential" color="255,230,230" fill="1" layer="-1.00" shape="517.32,578.27 515.35,582.91 514.67,582.63 512.27,588.30 523.53,593.06 527.89,582.73 517.32,578.27"/>
    <poly id="544173581" type="building.yes" color="255,230,230" fill="1" layer="-1.00" shape="1149.87,629.05 1146.24,629.25 1146.50,634.03 1150.13,633.83 1149.87,629.05"/>
    <poly id="544173582" type="building.yes" color="255,230,230" fill="1" layer="-1.00" shape="1150.15,638.33 1144.30,638.16 1144.16,642.65 1150.02,642.82 1150.15,638.33"/>
    <poly id="544173583" type="building.yes" color="255,230,230" fill="1" layer="-1.00" shape="627.57,588.01 622.64,599.26 632.55,603.59 634.87,598.26 636.12,598.81 636.44,598.11 639.17,599.30 641.45,594.09 627.57,588.01"/>
    <poly id="544173584" type="building.yes" color="255,230,230" fill="1" layer="-1.00" shape="411.19,606.20 407.39,611.32 406.35,610.55 402.09,616.28 414.97,625.84 423.03,614.98 411.19,606.20"/>
    <poly id="544173585" type="building.residential" color="255,230,230" fill="1" layer="-1.00" shape="915.51,588.21 913.82,592.27 911.36,591.24 907.91,599.49 912.49,601.41 911.90,602.87 916.59,604.77 918.58,599.88 931.07,604.93 933.58,598.70 929.17,596.91 930.93,592.53 922.48,589.09 921.83,590.84 915.51,588.21"/>
    <poly id="544173586" type="building.yes" color="255,230,230" fill="1" layer="-1.00" shape="1136.67,649.72 1130.60,650.03 1131.08,659.39 1137.15,659.08 1136.67,649.72"/>
    <poly id="544173587" type="building.yes" color="255,230,230" fill="1" layer="-1.00" shape="348.27,615.85 341.58,624.86 357.42,636.61 364.11,627.60 348.27,615.85"/>
    <poly id="544173588" type="building.yes" color="255,230,230" fill="1" layer="-1.00" shape="355.81,602.82 348.48,612.70 357.40,619.31 364.72,609.43 355.81,602.82"/>
    <poly id="544173589" type="building.yes" color="255,230,230" fill="1" layer="-1.00" shape="675.94,610.54 670.89,622.39 681.10,626.75 686.17,614.89 675.94,610.54"/>
    <poly id="544173590" type="building.yes" color="255,230,230" fill="1" layer="-1.00" shape="554.13,264.79 551.38,268.64 547.44,265.83 542.81,272.30 545.25,274.04 542.27,278.23 545.28,280.37 543.51,282.86 548.79,286.64 560.93,269.65 554.13,264.79"/>